data_graphite_ortho

_audit_creation_method RASPA-1.0
_audit_creation_date 2012-1-20
_audit_author_name 'David Dubbeldam'

_cell_length_a    2.46
_cell_length_b    4.26
_cell_length_c    6.8
_cell_angle_alpha 90
_cell_angle_beta  90
_cell_angle_gamma 90
_cell_volume      71.2613

_symmetry_cell_setting          triclinic
_symmetry_space_group_name_Hall 'P 1'
_symmetry_space_group_name_H-M  'P 1'
_symmetry_Int_Tables_number     1

_symmetry_equiv_pos_as_xyz 'x,y,z'

loop_
_atom_site_label
_atom_site_type_symbol
_atom_site_fract_x
_atom_site_fract_y
_atom_site_fract_z
_atom_site_charge
C1       C     0            0.16667      0            0
C2       C     0.5          0.66667      0            0
C3       C     0            0.83333      0            0
C4       C     0.5          0.33333      0            0


