data_SWNT-3-9

_audit_creation_method RASPA-1.0
_audit_creation_date 2012-2-4
_audit_author_name 'David Dubbeldam'

_cell_length_a    11.8152
_cell_length_b    11.8152
_cell_length_c    15.3596
_cell_angle_alpha 90
_cell_angle_beta  90
_cell_angle_gamma 120
_cell_volume      1856.92

_symmetry_cell_setting          triclinic
_symmetry_space_group_name_Hall 'P 1'
_symmetry_space_group_name_H-M  'P 1'
_symmetry_Int_Tables_number     1

_symmetry_equiv_pos_as_xyz 'x,y,z'

loop_
_atom_site_label
_atom_site_type_symbol
_atom_site_fract_x
_atom_site_fract_y
_atom_site_fract_z
_atom_site_charge
C        C     0.90725      0.76713      0.0083       0
C        C     0.91374      0.71298      0.16215      0
C        C     0.671        0.91183      0.08522      0
C        C     0.86307      0.85346      0.03394      0
C        C     0.84592      0.86962      0.12369      0
C        C     0.89021      0.81436      0.18779      0
C        C     0.87787      0.835        0.27753      0
C        C     0.23287      0.64012      0.0083       0
C        C     0.44313      0.82653      0.04676      0
C        C     0.54287      0.87787      0.11086      0
C        C     0.50961      0.86307      0.20061      0
C        C     0.75621      0.90951      0.14933      0
C        C     0.72923      0.91296      0.23907      0
C        C     0.80501      0.89468      0.30317      0
C        C     0.78152      0.9034       0.39292      0
C        C     0.90725      0.76713      0.34163      0
C        C     0.90003      0.79169      0.43138      0
C        C     0.91374      0.71298      0.49548      0
C        C     0.91183      0.74083      0.58522      0
C        C     0.14654      0.50961      0.03394      0
C        C     0.13038      0.4763       0.12369      0
C        C     0.31626      0.72923      0.0724       0
C        C     0.28702      0.70076      0.16215      0
C        C     0.37812      0.78152      0.22625      0
C        C     0.34669      0.75621      0.31599      0
C        C     0.60834      0.90003      0.26471      0
C        C     0.57585      0.89021      0.35445      0
C        C     0.671        0.91183      0.41856      0
C        C     0.64012      0.90725      0.5083       0
C        C     0.84592      0.86962      0.45702      0
C        C     0.82653      0.8834       0.54676      0
C        C     0.87787      0.835        0.61086      0
C        C     0.86307      0.85346      0.70061      0
C        C     0.17347      0.1166       0.04676      0
C        C     0.08817      0.25917      0.08522      0
C        C     0.09049      0.34669      0.14933      0
C        C     0.08704      0.31626      0.23907      0
C        C     0.18564      0.57585      0.18779      0
C        C     0.165        0.54287      0.27753      0
C        C     0.23287      0.64012      0.34163      0
C        C     0.20831      0.60834      0.43138      0
C        C     0.44313      0.82653      0.3801       0
C        C     0.41033      0.80501      0.46984      0
C        C     0.50961      0.86307      0.53394      0
C        C     0.4763       0.84592      0.62369      0
C        C     0.72923      0.91296      0.5724       0
C        C     0.70076      0.91374      0.66215      0
C        C     0.78152      0.9034       0.72625      0
C        C     0.75621      0.90951      0.81599      0
C        C     0.90003      0.79169      0.76471      0
C        C     0.89021      0.81436      0.85445      0
C        C     0.91183      0.74083      0.91856      0
C        C     0.35988      0.09275      0.0083       0
C        C     0.27077      0.08704      0.0724       0
C        C     0.29924      0.08626      0.16215      0
C        C     0.12213      0.165        0.11086      0
C        C     0.13693      0.14654      0.20061      0
C        C     0.09997      0.20831      0.26471      0
C        C     0.10979      0.18564      0.35445      0
C        C     0.10532      0.41033      0.30317      0
C        C     0.0966       0.37812      0.39292      0
C        C     0.13038      0.4763       0.45702      0
C        C     0.1166       0.44313      0.54676      0
C        C     0.28702      0.70076      0.49548      0
C        C     0.25917      0.671        0.58522      0
C        C     0.34669      0.75621      0.64933      0
C        C     0.31626      0.72923      0.73907      0
C        C     0.57585      0.89021      0.68779      0
C        C     0.54287      0.87787      0.77753      0
C        C     0.64012      0.90725      0.84163      0
C        C     0.60834      0.90003      0.93138      0
C        C     0.82653      0.8834       0.8801       0
C        C     0.80501      0.89468      0.96984      0
C        C     0.74083      0.329        0.08522      0
C        C     0.49039      0.13693      0.03394      0
C        C     0.5237       0.15408      0.12369      0
C        C     0.42415      0.10979      0.18779      0
C        C     0.45713      0.12213      0.27753      0
C        C     0.21848      0.0966       0.22625      0
C        C     0.24379      0.09049      0.31599      0
C        C     0.17347      0.1166       0.3801       0
C        C     0.19499      0.10532      0.46984      0
C        C     0.08817      0.25917      0.41856      0
C        C     0.09275      0.23287      0.5083       0
C        C     0.08704      0.31626      0.5724       0
C        C     0.08626      0.28702      0.66215      0
C        C     0.165        0.54287      0.61086      0
C        C     0.14654      0.50961      0.70061      0
C        C     0.20831      0.60834      0.76471      0
C        C     0.18564      0.57585      0.85445      0
C        C     0.41033      0.80501      0.80317      0
C        C     0.37812      0.78152      0.89292      0
C        C     0.4763       0.84592      0.95702      0
C        C     0.70076      0.91374      0.99548      0
C        C     0.8834       0.55687      0.04676      0
C        C     0.835        0.45713      0.11086      0
C        C     0.85346      0.49039      0.20061      0
C        C     0.65331      0.24379      0.14933      0
C        C     0.68374      0.27077      0.23907      0
C        C     0.58967      0.19499      0.30317      0
C        C     0.62188      0.21848      0.39292      0
C        C     0.35988      0.09275      0.34163      0
C        C     0.39166      0.09997      0.43138      0
C        C     0.29924      0.08626      0.49548      0
C        C     0.329        0.08817      0.58522      0
C        C     0.13693      0.14654      0.53394      0
C        C     0.15408      0.13038      0.62369      0
C        C     0.10979      0.18564      0.68779      0
C        C     0.12213      0.165        0.77753      0
C        C     0.0966       0.37812      0.72625      0
C        C     0.09049      0.34669      0.81599      0
C        C     0.1166       0.44313      0.8801       0
C        C     0.10532      0.41033      0.96984      0
C        C     0.25917      0.671        0.91856      0
C        C     0.91296      0.68374      0.0724       0
C        C     0.9034       0.62188      0.22625      0
C        C     0.90951      0.65331      0.31599      0
C        C     0.79169      0.39166      0.26471      0
C        C     0.81436      0.42415      0.35445      0
C        C     0.74083      0.329        0.41856      0
C        C     0.76713      0.35988      0.5083       0
C        C     0.5237       0.15408      0.45702      0
C        C     0.55687      0.17347      0.54676      0
C        C     0.45713      0.12213      0.61086      0
C        C     0.49039      0.13693      0.70061      0
C        C     0.24379      0.09049      0.64933      0
C        C     0.27077      0.08704      0.73907      0
C        C     0.19499      0.10532      0.80317      0
C        C     0.21848      0.0966       0.89292      0
C        C     0.09275      0.23287      0.84163      0
C        C     0.09997      0.20831      0.93138      0
C        C     0.08626      0.28702      0.99548      0
C        C     0.8834       0.55687      0.3801       0
C        C     0.89468      0.58967      0.46984      0
C        C     0.85346      0.49039      0.53394      0
C        C     0.86962      0.5237       0.62369      0
C        C     0.68374      0.27077      0.5724       0
C        C     0.71298      0.29924      0.66215      0
C        C     0.62188      0.21848      0.72625      0
C        C     0.65331      0.24379      0.81599      0
C        C     0.39166      0.09997      0.76471      0
C        C     0.42415      0.10979      0.85445      0
C        C     0.329        0.08817      0.91856      0
C        C     0.15408      0.13038      0.95702      0
C        C     0.90951      0.65331      0.64933      0
C        C     0.91296      0.68374      0.73907      0
C        C     0.81436      0.42415      0.68779      0
C        C     0.835        0.45713      0.77753      0
C        C     0.76713      0.35988      0.84163      0
C        C     0.79169      0.39166      0.93138      0
C        C     0.55687      0.17347      0.8801       0
C        C     0.58967      0.19499      0.96984      0
C        C     0.89468      0.58967      0.80317      0
C        C     0.9034       0.62188      0.89292      0
C        C     0.86962      0.5237       0.95702      0
C        C     0.71298      0.29924      0.99548      0


