data_SWNT-3-11

_audit_creation_method RASPA-1.0
_audit_creation_date 2012-1-22
_audit_author_name 'David Dubbeldam'

_cell_length_a    13.3422
_cell_length_b    13.3422
_cell_length_c    54.388
_cell_angle_alpha 90
_cell_angle_beta  90
_cell_angle_gamma 120
_cell_volume      8384.72

_symmetry_cell_setting          triclinic
_symmetry_space_group_name_Hall 'P 1'
_symmetry_space_group_name_H-M  'P 1'
_symmetry_Int_Tables_number     1

_symmetry_equiv_pos_as_xyz 'x,y,z'

loop_
_atom_site_label
_atom_site_type_symbol
_atom_site_fract_x
_atom_site_fract_y
_atom_site_fract_z
_atom_site_charge
C1       C     0.93223      0.72969      0.01218      0
C2       C     0.93061      0.75049      0.03774      0
C3       C     0.7123       0.93249      0.01934      0
C4       C     0.87576      0.87337      0.00298      0
C5       C     0.86275      0.88537      0.02854      0
C6       C     0.90419      0.83541      0.04592      0
C7       C     0.89462      0.85063      0.07148      0
C8       C     0.31162      0.74299      0.00093      0
C9       C     0.5135       0.88114      0.01013      0
C10      C     0.60416      0.91563      0.02752      0
C11      C     0.57973      0.90802      0.05308      0
C12      C     0.78684      0.92377      0.03672      0
C13      C     0.76765      0.92806      0.06228      0
C14      C     0.83315      0.90545      0.07966      0
C15      C     0.81665      0.91348      0.10523      0
C16      C     0.92304      0.7895       0.08887      0
C17      C     0.91713      0.80758      0.11443      0
C18      C     0.93185      0.73671      0.13181      0
C19      C     0.92974      0.75724      0.15737      0
C20      C     0.21466      0.63882      0.00911      0
C21      C     0.19635      0.61491      0.03467      0
C22      C     0.39777      0.81284      0.01831      0
C23      C     0.37365      0.79506      0.04388      0
C24      C     0.46353      0.855        0.06126      0
C25      C     0.43868      0.84013      0.08682      0
C26      C     0.6674       0.92908      0.07046      0
C27      C     0.64407      0.92522      0.09602      0
C28      C     0.72666      0.93235      0.11341      0
C29      C     0.70499      0.93233      0.13897      0
C30      C     0.87156      0.87751      0.12261      0
C31      C     0.85814      0.88908      0.14817      0
C32      C     0.90115      0.84062      0.16555      0
C33      C     0.89114      0.85545      0.19112      0
C34      C     0.0738       0.2231       0.01627      0
C35      C     0.08819      0.4086       0.02547      0
C36      C     0.12523      0.49961      0.04285      0
C37      C     0.11338      0.47461      0.06842      0
C38      C     0.26796      0.70008      0.05206      0
C39      C     0.24725      0.67759      0.07762      0
C40      C     0.32677      0.7566       0.095        0
C41      C     0.30416      0.73605      0.12056      0
C42      C     0.53015      0.88873      0.1042       0
C43      C     0.50516      0.87713      0.12977      0
C44      C     0.59605      0.91324      0.14715      0
C45      C     0.57152      0.90518      0.17271      0
C46      C     0.78054      0.92536      0.15635      0
C47      C     0.76105      0.92918      0.18191      0
C48      C     0.82777      0.90828      0.1993       0
C49      C     0.81092      0.91585      0.22486      0
C50      C     0.92123      0.79564      0.2085       0
C51      C     0.91485      0.81339      0.23406      0
C52      C     0.93131      0.74364      0.25144      0
C53      C     0.92872      0.76389      0.27701      0
C54      C     0.15647      0.10065      0.00707      0
C55      C     0.10886      0.14455      0.02445      0
C56      C     0.12018      0.1309       0.05001      0
C57      C     0.06784      0.29922      0.03365      0
C58      C     0.06754      0.27741      0.05921      0
C59      C     0.07568      0.36043      0.0766       0
C60      C     0.07155      0.33701      0.10216      0
C61      C     0.16284      0.56604      0.0858       0
C62      C     0.14775      0.54122      0.11136      0
C63      C     0.20844      0.6309       0.12874      0
C64      C     0.19047      0.60686      0.15431      0
C65      C     0.38969      0.80703      0.13795      0
C66      C     0.36571      0.78891      0.16351      0
C67      C     0.45523      0.85017      0.18089      0
C68      C     0.43044      0.83492      0.20645      0
C69      C     0.65968      0.92795      0.19009      0
C70      C     0.63618      0.92361      0.21566      0
C71      C     0.71952      0.9325       0.23304      0
C72      C     0.69762      0.932        0.2586       0
C73      C     0.86722      0.88151      0.24224      0
C74      C     0.8534       0.89265      0.2678       0
C75      C     0.89796      0.84569      0.28519      0
C76      C     0.88751      0.86013      0.31075      0
C77      C     0.42848      0.09482      0.00604      0
C78      C     0.45325      0.10425      0.03161      0
C79      C     0.23895      0.07082      0.01525      0
C80      C     0.25931      0.06844      0.04081      0
C81      C     0.18908      0.08415      0.05819      0
C82      C     0.20698      0.07798      0.08375      0
C83      C     0.08515      0.18661      0.06739      0
C84      C     0.09291      0.16991      0.09296      0
C85      C     0.07128      0.23611      0.11034      0
C86      C     0.0753       0.21675      0.1359       0
C87      C     0.09359      0.42496      0.11954      0
C88      C     0.08572      0.40047      0.1451       0
C89      C     0.12114      0.49127      0.16249      0
C90      C     0.10972      0.46629      0.18805      0
C91      C     0.26097      0.69266      0.17169      0
C92      C     0.24054      0.66996      0.19725      0
C93      C     0.31916      0.74984      0.21463      0
C94      C     0.29676      0.72902      0.2402       0
C95      C     0.52183      0.88501      0.22384      0
C96      C     0.49683      0.87297      0.2494       0
C97      C     0.58791      0.91071      0.26678      0
C98      C     0.56329      0.90218      0.29234      0
C99      C     0.77415      0.92679      0.27598      0
C100     C     0.75436      0.93013      0.30155      0
C101     C     0.82227      0.91095      0.31893      0
C102     C     0.80506      0.91806      0.34449      0
C103     C     0.91926      0.80167      0.32813      0
C104     C     0.91242      0.81907      0.35369      0
C105     C     0.93061      0.75049      0.37108      0
C106     C     0.92754      0.77044      0.39664      0
C107     C     0.82647      0.41754      0.0132       0
C108     C     0.65783      0.23017      0.0224       0
C109     C     0.56956      0.16508      0.03979      0
C110     C     0.59411      0.18146      0.06535      0
C111     C     0.36382      0.07639      0.04899      0
C112     C     0.38777      0.08214      0.07455      0
C113     C     0.30238      0.068        0.09193      0
C114     C     0.32495      0.06995      0.1175       0
C115     C     0.1466       0.10735      0.10114      0
C116     C     0.1616       0.09753      0.1267       0
C117     C     0.11249      0.13987      0.14408      0
C118     C     0.12424      0.12663      0.16964      0
C119     C     0.06758      0.29187      0.15328      0
C120     C     0.06777      0.27031      0.17885      0
C121     C     0.07415      0.35257      0.19623      0
C122     C     0.07049      0.32932      0.22179      0
C123     C     0.15768      0.55778      0.20543      0
C124     C     0.14297      0.53292      0.23099      0
C125     C     0.20234      0.62293      0.24838      0
C126     C     0.1847       0.59876      0.27394      0
C127     C     0.38165      0.8011       0.25758      0
C128     C     0.35781      0.78265      0.28314      0
C129     C     0.44694      0.84521      0.30052      0
C130     C     0.42223      0.82958      0.32609      0
C131     C     0.6519       0.92666      0.30973      0
C132     C     0.62825      0.92185      0.33529      0
C133     C     0.7123       0.93249      0.35267      0
C134     C     0.69016      0.93151      0.37823      0
C135     C     0.86275      0.88537      0.36187      0
C136     C     0.84853      0.89607      0.38744      0
C137     C     0.89462      0.85063      0.40482      0
C138     C     0.88373      0.86468      0.43038      0
C139     C     0.92077      0.62369      0.004        0
C140     C     0.89028      0.53371      0.02138      0
C141     C     0.90041      0.55857      0.04694      0
C142     C     0.75946      0.33004      0.03058      0
C143     C     0.77903      0.35331      0.05615      0
C144     C     0.70324      0.27098      0.07353      0
C145     C     0.72496      0.29256      0.09909      0
C146     C     0.50317      0.12703      0.08273      0
C147     C     0.52816      0.1403       0.10829      0
C148     C     0.43671      0.09782      0.12568      0
C149     C     0.46154      0.10768      0.15124      0
C150     C     0.24564      0.06987      0.13488      0
C151     C     0.26628      0.06797      0.16044      0
C152     C     0.19494      0.08194      0.17782      0
C153     C     0.21316      0.07623      0.20339      0
C154     C     0.08758      0.18093      0.18703      0
C155     C     0.09581      0.16459      0.21259      0
C156     C     0.07246      0.22956      0.22997      0
C157     C     0.07696      0.2105       0.25553      0
C158     C     0.09081      0.41677      0.23917      0
C159     C     0.0834       0.39238      0.26474      0
C160     C     0.11719      0.48294      0.28212      0
C161     C     0.1062       0.45799      0.30768      0
C162     C     0.25407      0.68516      0.29132      0
C163     C     0.23392      0.66226      0.31688      0
C164     C     0.31162      0.74299      0.33427      0
C165     C     0.28944      0.72191      0.35983      0
C166     C     0.5135       0.88114      0.34347      0
C167     C     0.48849      0.86868      0.36903      0
C168     C     0.57973      0.90802      0.38641      0
C169     C     0.55503      0.89904      0.41198      0
C170     C     0.76765      0.92806      0.39562      0
C171     C     0.74757      0.93093      0.42118      0
C172     C     0.81665      0.91348      0.43856      0
C173     C     0.7991       0.92012      0.46412      0
C174     C     0.91713      0.80758      0.44776      0
C175     C     0.90983      0.82464      0.47332      0
C176     C     0.92974      0.75724      0.49071      0
C177     C     0.9262       0.7769       0.51627      0
C178     C     0.92951      0.67068      0.05512      0
C179     C     0.93174      0.69336      0.08069      0
C180     C     0.85703      0.46708      0.06433      0
C181     C     0.87054      0.49206      0.08989      0
C182     C     0.8153       0.40124      0.10727      0
C183     C     0.83188      0.42574      0.13283      0
C184     C     0.64219      0.21735      0.11647      0
C185     C     0.66556      0.23674      0.14204      0
C186     C     0.57777      0.17042      0.15942      0
C187     C     0.60223      0.18716      0.18498      0
C188     C     0.37175      0.07815      0.16862      0
C189     C     0.39584      0.08437      0.19418      0
C190     C     0.30984      0.06849      0.21157      0
C191     C     0.3326       0.07092      0.23713      0
C192     C     0.15147      0.10393      0.22077      0
C193     C     0.16685      0.09455      0.24633      0
C194     C     0.11627      0.13532      0.26371      0
C195     C     0.12844      0.12249      0.28928      0
C196     C     0.06748      0.2846       0.27292      0
C197     C     0.06815      0.26329      0.29848      0
C198     C     0.07277      0.34476      0.31586      0
C199     C     0.06959      0.32169      0.34142      0
C200     C     0.15265      0.54951      0.32506      0
C201     C     0.13834      0.5246       0.35063      0
C202     C     0.19635      0.61491      0.36801      0
C203     C     0.17906      0.59063      0.39357      0
C204     C     0.37365      0.79506      0.37721      0
C205     C     0.34996      0.77629      0.40277      0
C206     C     0.43868      0.84013      0.42016      0
C207     C     0.41404      0.82412      0.44572      0
C208     C     0.64407      0.92522      0.42936      0
C209     C     0.62026      0.91993      0.45492      0
C210     C     0.70499      0.93233      0.4723       0
C211     C     0.68264      0.93086      0.49786      0
C212     C     0.85814      0.88908      0.4815       0
C213     C     0.84353      0.89935      0.50707      0
C214     C     0.89114      0.85545      0.52445      0
C215     C     0.87982      0.8691       0.55001      0
C216     C     0.93246      0.72259      0.55921      0
C217     C     0.9166       0.60762      0.09807      0
C218     C     0.92262      0.63165      0.12363      0
C219     C     0.8938       0.54201      0.14101      0
C220     C     0.90348      0.56682      0.16658      0
C221     C     0.76608      0.33774      0.15022      0
C222     C     0.78534      0.36118      0.17578      0
C223     C     0.71056      0.27809      0.19316      0
C224     C     0.73204      0.29992      0.21872      0
C225     C     0.51151      0.13132      0.20236      0
C226     C     0.53647      0.145        0.22793      0
C227     C     0.44497      0.10096      0.24531      0
C228     C     0.46985      0.11127      0.27087      0
C229     C     0.25243      0.06907      0.25451      0
C230     C     0.27334      0.06765      0.28007      0
C231     C     0.2009       0.07988      0.29746      0
C232     C     0.21946      0.07464      0.32302      0
C233     C     0.09017      0.17536      0.30666      0
C234     C     0.09885      0.15938      0.33222      0
C235     C     0.0738       0.2231       0.3496       0
C236     C     0.07877      0.20436      0.37517      0
C237     C     0.08819      0.4086       0.35881      0
C238     C     0.08124      0.38432      0.38437      0
C239     C     0.11338      0.47461      0.40175      0
C240     C     0.10282      0.4497       0.42731      0
C241     C     0.24725      0.67759      0.41095      0
C242     C     0.22739      0.6545       0.43651      0
C243     C     0.30416      0.73605      0.4539       0
C244     C     0.2822       0.71471      0.47946      0
C245     C     0.50516      0.87713      0.4631       0
C246     C     0.48016      0.86426      0.48866      0
C247     C     0.57152      0.90518      0.50604      0
C248     C     0.54675      0.89575      0.53161      0
C249     C     0.76105      0.92918      0.51525      0
C250     C     0.74069      0.93156      0.54081      0
C251     C     0.81092      0.91585      0.55819      0
C252     C     0.79302      0.92202      0.58375      0
C253     C     0.91485      0.81339      0.56739      0
C254     C     0.90709      0.83009      0.59296      0
C255     C     0.92872      0.76389      0.61034      0
C256     C     0.9247       0.78325      0.6359       0
C257     C     0.93041      0.67831      0.17476      0
C258     C     0.93216      0.70078      0.20032      0
C259     C     0.86166      0.4754       0.18396      0
C260     C     0.87477      0.50039      0.20952      0
C261     C     0.82094      0.40937      0.2269       0
C262     C     0.83716      0.43396      0.25247      0
C263     C     0.65004      0.22371      0.23611      0
C264     C     0.67323      0.2434       0.26167      0
C265     C     0.58596      0.17588      0.27905      0
C266     C     0.61031      0.19297      0.30461      0
C267     C     0.37974      0.08007      0.28825      0
C268     C     0.40395      0.08676      0.31382      0
C269     C     0.31736      0.06914      0.3312       0
C270     C     0.34032      0.07205      0.35676      0
C271     C     0.15647      0.10065      0.3404       0
C272     C     0.17223      0.09172      0.36596      0
C273     C     0.12018      0.1309       0.38335      0
C274     C     0.13278      0.11849      0.40891      0
C275     C     0.06754      0.27741      0.39255      0
C276     C     0.06869      0.25636      0.41811      0
C277     C     0.07155      0.33701      0.43549      0
C278     C     0.06884      0.31413      0.46105      0
C279     C     0.14775      0.54122      0.44469      0
C280     C     0.13383      0.51627      0.47026      0
C281     C     0.19047      0.60686      0.48764      0
C282     C     0.17353      0.58246      0.5132       0
C283     C     0.36571      0.78891      0.49684      0
C284     C     0.34217      0.76983      0.5224       0
C285     C     0.43044      0.83492      0.53979      0
C286     C     0.40589      0.81854      0.56535      0
C287     C     0.63618      0.92361      0.54899      0
C288     C     0.61223      0.91786      0.57455      0
C289     C     0.69762      0.932        0.59193      0
C290     C     0.67505      0.93005      0.6175       0
C291     C     0.8534       0.89265      0.60114      0
C292     C     0.8384       0.90247      0.6267       0
C293     C     0.88751      0.86013      0.64408      0
C294     C     0.87576      0.87337      0.66964      0
C295     C     0.93223      0.72969      0.67885      0
C296     C     0.91876      0.61568      0.2177       0
C297     C     0.92432      0.63957      0.24326      0
C298     C     0.89718      0.5503       0.26065      0
C299     C     0.90641      0.57504      0.28621      0
C300     C     0.77261      0.3455       0.26985      0
C301     C     0.79156      0.3691       0.29541      0
C302     C     0.7178       0.28529      0.31279      0
C303     C     0.73903      0.30734      0.33836      0
C304     C     0.51984      0.13574      0.322        0
C305     C     0.54477      0.14983      0.34756      0
C306     C     0.45325      0.10425      0.36494      0
C307     C     0.47817      0.11499      0.3905       0
C308     C     0.25931      0.06844      0.37414      0
C309     C     0.28048      0.0675       0.39971      0
C310     C     0.20698      0.07798      0.41709      0
C311     C     0.22585      0.07321      0.44265      0
C312     C     0.09291      0.16991      0.42629      0
C313     C     0.10204      0.15431      0.45185      0
C314     C     0.0753       0.21675      0.46923      0
C315     C     0.08074      0.19833      0.4948       0
C316     C     0.08572      0.40047      0.47844      0
C317     C     0.07923      0.37631      0.504        0
C318     C     0.10972      0.46629      0.52138      0
C319     C     0.09959      0.44143      0.54694      0
C320     C     0.24054      0.66996      0.53058      0
C321     C     0.22097      0.64669      0.55615      0
C322     C     0.29676      0.72902      0.57353      0
C323     C     0.27504      0.70744      0.59909      0
C324     C     0.49683      0.87297      0.58273      0
C325     C     0.47184      0.8597       0.60829      0
C326     C     0.56329      0.90218      0.62568      0
C327     C     0.53846      0.89232      0.65124      0
C328     C     0.75436      0.93013      0.63488      0
C329     C     0.73372      0.93203      0.66044      0
C330     C     0.80506      0.91806      0.67782      0
C331     C     0.78684      0.92377      0.70339      0
C332     C     0.91242      0.81907      0.68703      0
C333     C     0.90419      0.83541      0.71259      0
C334     C     0.92754      0.77044      0.72997      0
C335     C     0.92304      0.7895       0.75553      0
C336     C     0.93116      0.68587      0.29439      0
C337     C     0.93242      0.70813      0.31995      0
C338     C     0.86617      0.48373      0.30359      0
C339     C     0.87886      0.50873      0.32915      0
C340     C     0.82647      0.41754      0.34654      0
C341     C     0.84232      0.44222      0.3721       0
C342     C     0.65783      0.23017      0.35574      0
C343     C     0.68084      0.25016      0.3813       0
C344     C     0.59411      0.18146      0.39868      0
C345     C     0.61835      0.1989       0.42425      0
C346     C     0.38777      0.08214      0.40789      0
C347     C     0.41209      0.08929      0.43345      0
C348     C     0.32495      0.06995      0.45083      0
C349     C     0.3481       0.07334      0.47639      0
C350     C     0.1616       0.09753      0.46003      0
C351     C     0.17773      0.08905      0.48559      0
C352     C     0.12424      0.12663      0.50298      0
C353     C     0.13725      0.11463      0.52854      0
C354     C     0.06777      0.27031      0.51218      0
C355     C     0.06939      0.24951      0.53774      0
C356     C     0.07049      0.32932      0.55512      0
C357     C     0.06826      0.30664      0.58069      0
C358     C     0.14297      0.53292      0.56433      0
C359     C     0.12946      0.50794      0.58989      0
C360     C     0.1847       0.59876      0.60727      0
C361     C     0.16812      0.57426      0.63283      0
C362     C     0.35781      0.78265      0.61647      0
C363     C     0.33444      0.76326      0.64204      0
C364     C     0.42223      0.82958      0.65942      0
C365     C     0.39777      0.81284      0.68498      0
C366     C     0.62825      0.92185      0.66862      0
C367     C     0.60416      0.91563      0.69418      0
C368     C     0.69016      0.93151      0.71157      0
C369     C     0.6674       0.92908      0.73713      0
C370     C     0.84853      0.89607      0.72077      0
C371     C     0.83315      0.90545      0.74633      0
C372     C     0.88373      0.86468      0.76371      0
C373     C     0.87156      0.87751      0.78928      0
C374     C     0.93185      0.73671      0.79848      0
C375     C     0.92077      0.62369      0.33733      0
C376     C     0.92585      0.64743      0.3629       0
C377     C     0.90041      0.55857      0.38028      0
C378     C     0.90919      0.58323      0.40584      0
C379     C     0.77903      0.35331      0.38948      0
C380     C     0.79766      0.37707      0.41504      0
C381     C     0.72496      0.29256      0.43242      0
C382     C     0.74593      0.31484      0.45799      0
C383     C     0.52816      0.1403       0.44163      0
C384     C     0.55306      0.15479      0.46719      0
C385     C     0.46154      0.10768      0.48457      0
C386     C     0.4865       0.11886      0.51013      0
C387     C     0.26628      0.06797      0.49377      0
C388     C     0.2877       0.06751      0.51934      0
C389     C     0.21316      0.07623      0.53672      0
C390     C     0.23235      0.07194      0.56228      0
C391     C     0.09581      0.16459      0.54592      0
C392     C     0.10538      0.14937      0.57148      0
C393     C     0.07696      0.2105       0.58887      0
C394     C     0.08287      0.19242      0.61443      0
C395     C     0.0834       0.39238      0.59807      0
C396     C     0.07738      0.36835      0.62363      0
C397     C     0.1062       0.45799      0.64101      0
C398     C     0.09652      0.43318      0.66658      0
C399     C     0.23392      0.66226      0.65022      0
C400     C     0.21466      0.63882      0.67578      0
C401     C     0.28944      0.72191      0.69316      0
C402     C     0.26796      0.70008      0.71872      0
C403     C     0.48849      0.86868      0.70236      0
C404     C     0.46353      0.855        0.72793      0
C405     C     0.55503      0.89904      0.74531      0
C406     C     0.53015      0.88873      0.77087      0
C407     C     0.74757      0.93093      0.75451      0
C408     C     0.72666      0.93235      0.78007      0
C409     C     0.7991       0.92012      0.79746      0
C410     C     0.78054      0.92536      0.82302      0
C411     C     0.90983      0.82464      0.80666      0
C412     C     0.90115      0.84062      0.83222      0
C413     C     0.9262       0.7769       0.8496       0
C414     C     0.92123      0.79564      0.87517      0
C415     C     0.93174      0.69336      0.41402      0
C416     C     0.93252      0.7154       0.43958      0
C417     C     0.87054      0.49206      0.42322      0
C418     C     0.88281      0.51706      0.44878      0
C419     C     0.83188      0.42574      0.46617      0
C420     C     0.84735      0.45049      0.49173      0
C421     C     0.66556      0.23674      0.47537      0
C422     C     0.68838      0.25701      0.50093      0
C423     C     0.60223      0.18716      0.51831      0
C424     C     0.62635      0.20494      0.54388      0
C425     C     0.39584      0.08437      0.52752      0
C426     C     0.42027      0.09198      0.55308      0
C427     C     0.3326       0.07092      0.57046      0
C428     C     0.35593      0.07478      0.59602      0
C429     C     0.16685      0.09455      0.57966      0
C430     C     0.18335      0.08652      0.60523      0
C431     C     0.12844      0.12249      0.62261      0
C432     C     0.14186      0.11092      0.64817      0
C433     C     0.06815      0.26329      0.63181      0
C434     C     0.07026      0.24276      0.65737      0
C435     C     0.06959      0.32169      0.67476      0
C436     C     0.06784      0.29922      0.70032      0
C437     C     0.13834      0.5246       0.68396      0
C438     C     0.12523      0.49961      0.70952      0
C439     C     0.17906      0.59063      0.7269       0
C440     C     0.16284      0.56604      0.75247      0
C441     C     0.34996      0.77629      0.73611      0
C442     C     0.32677      0.7566       0.76167      0
C443     C     0.41404      0.82412      0.77905      0
C444     C     0.38969      0.80703      0.80461      0
C445     C     0.62026      0.91993      0.78825      0
C446     C     0.59605      0.91324      0.81382      0
C447     C     0.68264      0.93086      0.8312       0
C448     C     0.65968      0.92795      0.85676      0
C449     C     0.84353      0.89935      0.8404       0
C450     C     0.82777      0.90828      0.86596      0
C451     C     0.87982      0.8691       0.88335      0
C452     C     0.86722      0.88151      0.90891      0
C453     C     0.93246      0.72259      0.89255      0
C454     C     0.93131      0.74364      0.91811      0
C455     C     0.92262      0.63165      0.45696      0
C456     C     0.92723      0.65524      0.48253      0
C457     C     0.90348      0.56682      0.49991      0
C458     C     0.91181      0.5914       0.52547      0
C459     C     0.78534      0.36118      0.50911      0
C460     C     0.80365      0.38509      0.53467      0
C461     C     0.73204      0.29992      0.55206      0
C462     C     0.75275      0.32241      0.57762      0
C463     C     0.53647      0.145        0.56126      0
C464     C     0.56132      0.15987      0.58682      0
C465     C     0.46985      0.11127      0.6042       0
C466     C     0.49484      0.12287      0.62977      0
C467     C     0.27334      0.06765      0.61341      0
C468     C     0.29501      0.06767      0.63897      0
C469     C     0.21946      0.07464      0.65635      0
C470     C     0.23895      0.07082      0.68191      0
C471     C     0.09885      0.15938      0.66555      0
C472     C     0.10886      0.14455      0.69112      0
C473     C     0.07877      0.20436      0.7085       0
C474     C     0.08515      0.18661      0.73406      0
C475     C     0.08124      0.38432      0.7177       0
C476     C     0.07568      0.36043      0.74326      0
C477     C     0.10282      0.4497       0.76065      0
C478     C     0.09359      0.42496      0.78621      0
C479     C     0.22739      0.6545       0.76985      0
C480     C     0.20844      0.6309       0.79541      0
C481     C     0.2822       0.71471      0.81279      0
C482     C     0.26097      0.69266      0.83836      0
C483     C     0.48016      0.86426      0.822        0
C484     C     0.45523      0.85017      0.84756      0
C485     C     0.54675      0.89575      0.86494      0
C486     C     0.52183      0.88501      0.8905       0
C487     C     0.74069      0.93156      0.87414      0
C488     C     0.71952      0.9325       0.89971      0
C489     C     0.79302      0.92202      0.91709      0
C490     C     0.77415      0.92679      0.94265      0
C491     C     0.90709      0.83009      0.92629      0
C492     C     0.89796      0.84569      0.95185      0
C493     C     0.9247       0.78325      0.96923      0
C494     C     0.91926      0.80167      0.9948       0
C495     C     0.93216      0.70078      0.53365      0
C496     C     0.87477      0.50039      0.54285      0
C497     C     0.88662      0.52539      0.56842      0
C498     C     0.83716      0.43396      0.5858       0
C499     C     0.85225      0.45878      0.61136      0
C500     C     0.67323      0.2434       0.595        0
C501     C     0.69584      0.26395      0.62056      0
C502     C     0.61031      0.19297      0.63795      0
C503     C     0.63429      0.21109      0.66351      0
C504     C     0.40395      0.08676      0.64715      0
C505     C     0.42848      0.09482      0.67271      0
C506     C     0.34032      0.07205      0.69009      0
C507     C     0.36382      0.07639      0.71566      0
C508     C     0.17223      0.09172      0.6993       0
C509     C     0.18908      0.08415      0.72486      0
C510     C     0.13278      0.11849      0.74224      0
C511     C     0.1466       0.10735      0.7678       0
C512     C     0.06869      0.25636      0.75144      0
C513     C     0.07128      0.23611      0.77701      0
C514     C     0.06884      0.31413      0.79439      0
C515     C     0.06758      0.29187      0.81995      0
C516     C     0.13383      0.51627      0.80359      0
C517     C     0.12114      0.49127      0.82915      0
C518     C     0.17353      0.58246      0.84654      0
C519     C     0.15768      0.55778      0.8721       0
C520     C     0.34217      0.76983      0.85574      0
C521     C     0.31916      0.74984      0.8813       0
C522     C     0.40589      0.81854      0.89868      0
C523     C     0.38165      0.8011       0.92425      0
C524     C     0.61223      0.91786      0.90789      0
C525     C     0.58791      0.91071      0.93345      0
C526     C     0.67505      0.93005      0.95083      0
C527     C     0.6519       0.92666      0.97639      0
C528     C     0.8384       0.90247      0.96003      0
C529     C     0.82227      0.91095      0.98559      0
C530     C     0.92432      0.63957      0.5766       0
C531     C     0.92845      0.66299      0.60216      0
C532     C     0.90641      0.57504      0.61954      0
C533     C     0.91428      0.59953      0.6451       0
C534     C     0.79156      0.3691       0.62874      0
C535     C     0.80953      0.39314      0.65431      0
C536     C     0.73903      0.30734      0.67169      0
C537     C     0.75946      0.33004      0.69725      0
C538     C     0.54477      0.14983      0.68089      0
C539     C     0.56956      0.16508      0.70645      0
C540     C     0.47817      0.11499      0.72384      0
C541     C     0.50317      0.12703      0.7494       0
C542     C     0.28048      0.0675       0.73304      0
C543     C     0.30238      0.068        0.7586       0
C544     C     0.22585      0.07321      0.77598      0
C545     C     0.24564      0.06987      0.80155      0
C546     C     0.10204      0.15431      0.78519      0
C547     C     0.11249      0.13987      0.81075      0
C548     C     0.08074      0.19833      0.82813      0
C549     C     0.08758      0.18093      0.85369      0
C550     C     0.07923      0.37631      0.83733      0
C551     C     0.07415      0.35257      0.8629       0
C552     C     0.09959      0.44143      0.88028      0
C553     C     0.09081      0.41677      0.90584      0
C554     C     0.22097      0.64669      0.88948      0
C555     C     0.20234      0.62293      0.91504      0
C556     C     0.27504      0.70744      0.93242      0
C557     C     0.25407      0.68516      0.95799      0
C558     C     0.47184      0.8597       0.94163      0
C559     C     0.44694      0.84521      0.96719      0
C560     C     0.53846      0.89232      0.98457      0
C561     C     0.73372      0.93203      0.99377      0
C562     C     0.93242      0.70813      0.65328      0
C563     C     0.87886      0.50873      0.66249      0
C564     C     0.89028      0.53371      0.68805      0
C565     C     0.84232      0.44222      0.70543      0
C566     C     0.85703      0.46708      0.73099      0
C567     C     0.68084      0.25016      0.71463      0
C568     C     0.70324      0.27098      0.7402       0
C569     C     0.61835      0.1989       0.75758      0
C570     C     0.64219      0.21735      0.78314      0
C571     C     0.41209      0.08929      0.76678      0
C572     C     0.43671      0.09782      0.79234      0
C573     C     0.3481       0.07334      0.80973      0
C574     C     0.37175      0.07815      0.83529      0
C575     C     0.17773      0.08905      0.81893      0
C576     C     0.19494      0.08194      0.84449      0
C577     C     0.13725      0.11463      0.86187      0
C578     C     0.15147      0.10393      0.88744      0
C579     C     0.06939      0.24951      0.87108      0
C580     C     0.07246      0.22956      0.89664      0
C581     C     0.06826      0.30664      0.91402      0
C582     C     0.06748      0.2846       0.93958      0
C583     C     0.12946      0.50794      0.92322      0
C584     C     0.11719      0.48294      0.94878      0
C585     C     0.16812      0.57426      0.96617      0
C586     C     0.15265      0.54951      0.99173      0
C587     C     0.33444      0.76326      0.97537      0
C588     C     0.92585      0.64743      0.69623      0
C589     C     0.92951      0.67068      0.72179      0
C590     C     0.90919      0.58323      0.73917      0
C591     C     0.9166       0.60762      0.76474      0
C592     C     0.79766      0.37707      0.74838      0
C593     C     0.8153       0.40124      0.77394      0
C594     C     0.74593      0.31484      0.79132      0
C595     C     0.76608      0.33774      0.81688      0
C596     C     0.55306      0.15479      0.80052      0
C597     C     0.57777      0.17042      0.82609      0
C598     C     0.4865       0.11886      0.84347      0
C599     C     0.51151      0.13132      0.86903      0
C600     C     0.2877       0.06751      0.85267      0
C601     C     0.30984      0.06849      0.87823      0
C602     C     0.23235      0.07194      0.89562      0
C603     C     0.25243      0.06907      0.92118      0
C604     C     0.10538      0.14937      0.90482      0
C605     C     0.11627      0.13532      0.93038      0
C606     C     0.08287      0.19242      0.94776      0
C607     C     0.09017      0.17536      0.97332      0
C608     C     0.07738      0.36835      0.95696      0
C609     C     0.07277      0.34476      0.98253      0
C610     C     0.09652      0.43318      0.99991      0
C611     C     0.93252      0.7154       0.77292      0
C612     C     0.88281      0.51706      0.78212      0
C613     C     0.8938       0.54201      0.80768      0
C614     C     0.84735      0.45049      0.82506      0
C615     C     0.86166      0.4754       0.85063      0
C616     C     0.68838      0.25701      0.83427      0
C617     C     0.71056      0.27809      0.85983      0
C618     C     0.62635      0.20494      0.87721      0
C619     C     0.65004      0.22371      0.90277      0
C620     C     0.42027      0.09198      0.88641      0
C621     C     0.44497      0.10096      0.91198      0
C622     C     0.35593      0.07478      0.92936      0
C623     C     0.37974      0.08007      0.95492      0
C624     C     0.18335      0.08652      0.93856      0
C625     C     0.2009       0.07988      0.96412      0
C626     C     0.14186      0.11092      0.9815       0
C627     C     0.07026      0.24276      0.99071      0
C628     C     0.92723      0.65524      0.81586      0
C629     C     0.93041      0.67831      0.84142      0
C630     C     0.91181      0.5914       0.85881      0
C631     C     0.91876      0.61568      0.88437      0
C632     C     0.80365      0.38509      0.86801      0
C633     C     0.82094      0.40937      0.89357      0
C634     C     0.75275      0.32241      0.91095      0
C635     C     0.77261      0.3455       0.93651      0
C636     C     0.56132      0.15987      0.92016      0
C637     C     0.58596      0.17588      0.94572      0
C638     C     0.49484      0.12287      0.9631       0
C639     C     0.51984      0.13574      0.98866      0
C640     C     0.29501      0.06767      0.9723       0
C641     C     0.31736      0.06914      0.99786      0
C642     C     0.88662      0.52539      0.90175      0
C643     C     0.89718      0.5503       0.92731      0
C644     C     0.85225      0.45878      0.94469      0
C645     C     0.86617      0.48373      0.97026      0
C646     C     0.69584      0.26395      0.9539       0
C647     C     0.7178       0.28529      0.97946      0
C648     C     0.63429      0.21109      0.99684      0
C649     C     0.92845      0.66299      0.93549      0
C650     C     0.93116      0.68587      0.96105      0
C651     C     0.91428      0.59953      0.97844      0
C652     C     0.80953      0.39314      0.98764      0


