data_SWNT-4-14

_audit_creation_method RASPA-1.0
_audit_creation_date 2012-1-22
_audit_author_name 'David Dubbeldam'

_cell_length_a    16.1634
_cell_length_b    16.1634
_cell_length_c    34.8696
_cell_angle_alpha 90
_cell_angle_beta  90
_cell_angle_gamma 120
_cell_volume      7889.38

_symmetry_cell_setting          triclinic
_symmetry_space_group_name_Hall 'P 1'
_symmetry_space_group_name_H-M  'P 1'
_symmetry_Int_Tables_number     1

_symmetry_equiv_pos_as_xyz 'x,y,z'

loop_
_atom_site_label
_atom_site_type_symbol
_atom_site_fract_x
_atom_site_fract_y
_atom_site_fract_z
_atom_site_charge
C1       C     0.95694      0.75276      0.01359      0
C2       C     0.86515      0.9217       0.0111       0
C3       C     0.85181      0.92959      0.0509       0
C4       C     0.94093      0.8271       0.02602      0
C5       C     0.93467      0.84175      0.06582      0
C6       C     0.9523       0.78739      0.09319      0
C7       C     0.94849      0.80378      0.13299      0
C8       C     0.55764      0.92213      0.02105      0
C9       C     0.72002      0.95768      0.03597      0
C10      C     0.78266      0.9532       0.06334      0
C11      C     0.76547      0.95573      0.10314      0
C12      C     0.89494      0.89797      0.07826      0
C13      C     0.88366      0.90814      0.11806      0
C14      C     0.91931      0.86877      0.14543      0
C15      C     0.91024      0.88108      0.18523      0
C16      C     0.95747      0.74375      0.16035      0
C17      C     0.95615      0.76164      0.20015      0
C18      C     0.38724      0.82787      0.00612      0
C19      C     0.46124      0.87566      0.03349      0
C20      C     0.43991      0.86299      0.07329      0
C21      C     0.63106      0.9454       0.04841      0
C22      C     0.61036      0.93995      0.08821      0
C23      C     0.68146      0.95472      0.11558      0
C24      C     0.66157      0.95174      0.15538      0
C25      C     0.82283      0.94252      0.1305       0
C26      C     0.80727      0.94753      0.1703       0
C27      C     0.85858      0.92576      0.19767      0
C28      C     0.84485      0.93318      0.23747      0
C29      C     0.93792      0.83452      0.21259      0
C30      C     0.93118      0.8488       0.25239      0
C31      C     0.95052      0.79567      0.27976      0
C32      C     0.94621      0.81173      0.31956      0
C33      C     0.16064      0.59642      0.00364      0
C34      C     0.14661      0.57534      0.04344      0
C35      C     0.29681      0.75368      0.01856      0
C36      C     0.27781      0.73554      0.05836      0
C37      C     0.34619      0.79651      0.08573      0
C38      C     0.32614      0.77983      0.12553      0
C39      C     0.51486      0.90368      0.10065      0
C40      C     0.4934       0.89312      0.14045      0
C41      C     0.56827      0.92617      0.16781      0
C42      C     0.54698      0.91786      0.20762      0
C43      C     0.72938      0.9578       0.18274      0
C44      C     0.71055      0.95732      0.22254      0
C45      C     0.77414      0.95459      0.2499       0
C46      C     0.75665      0.95663      0.28971      0
C47      C     0.88941      0.90316      0.26483      0
C48      C     0.8777       0.91289      0.30463      0
C49      C     0.91489      0.87503      0.33199      0
C50      C     0.90536      0.88693      0.3718       0
C51      C     0.95694      0.75276      0.34692      0
C52      C     0.95512      0.77038      0.38672      0
C53      C     0.04306      0.24724      0.01359      0
C54      C     0.06456      0.40466      0.02851      0
C55      C     0.0935       0.47909      0.05587      0
C56      C     0.08407      0.45768      0.09568      0
C57      C     0.1989       0.6481       0.0708       0
C58      C     0.18307      0.62763      0.1106       0
C59      C     0.2413       0.69775      0.13796      0
C60      C     0.22388      0.67817      0.17777      0
C61      C     0.39767      0.83527      0.15289      0
C62      C     0.37687      0.82029      0.19269      0
C63      C     0.45056      0.86943      0.22005      0
C64      C     0.42928      0.85635      0.25985      0
C65      C     0.62075      0.9428       0.23498      0
C66      C     0.59991      0.93686      0.27478      0
C67      C     0.67156      0.95335      0.30214      0
C68      C     0.65148      0.94987      0.34194      0
C69      C     0.81514      0.94514      0.31707      0
C70      C     0.79923      0.94967      0.35687      0
C71      C     0.85181      0.92959      0.38423      0
C72      C     0.83769      0.93653      0.42403      0
C73      C     0.93467      0.84175      0.39916      0
C74      C     0.92746      0.85565      0.43896      0
C75      C     0.94849      0.80378      0.46632      0
C76      C     0.94369      0.8195       0.50612      0
C77      C     0.05907      0.1729       0.02602      0
C78      C     0.06533      0.15825      0.06582      0
C79      C     0.04462      0.31299      0.04095      0
C80      C     0.04292      0.29361      0.08075      0
C81      C     0.05324      0.36315      0.10811      0
C82      C     0.04905      0.34282      0.14791      0
C83      C     0.12091      0.53272      0.12304      0
C84      C     0.1093       0.51128      0.16284      0
C85      C     0.15353      0.5859       0.1902       0
C86      C     0.13988      0.56473      0.23         0
C87      C     0.28725      0.74468      0.20513      0
C88      C     0.26849      0.72627      0.24493      0
C89      C     0.33612      0.78825      0.27229      0
C90      C     0.31626      0.77126      0.31209      0
C91      C     0.50413      0.89851      0.28722      0
C92      C     0.48267      0.88751      0.32702      0
C93      C     0.55764      0.92213      0.35438      0
C94      C     0.53629      0.91336      0.39418      0
C95      C     0.72002      0.95768      0.36931      0
C96      C     0.70097      0.9567       0.40911      0
C97      C     0.76547      0.95573      0.43647      0
C98      C     0.74769      0.95727      0.47627      0
C99      C     0.88366      0.90814      0.4514       0
C100     C     0.87153      0.91741      0.4912       0
C101     C     0.91024      0.88108      0.51856      0
C102     C     0.90026      0.89255      0.55836      0
C103     C     0.95615      0.76164      0.53349      0
C104     C     0.95384      0.77896      0.57329      0
C105     C     0.95775      0.73459      0.64045      0
C106     C     0.27998      0.04232      0.03597      0
C107     C     0.13485      0.0783       0.0111       0
C108     C     0.14819      0.07041      0.0509       0
C109     C     0.10506      0.10203      0.07826      0
C110     C     0.11634      0.09186      0.11806      0
C111     C     0.0477       0.21261      0.09319      0
C112     C     0.05151      0.19622      0.13299      0
C113     C     0.04253      0.25625      0.16035      0
C114     C     0.04385      0.23836      0.20015      0
C115     C     0.06799      0.41518      0.17528      0
C116     C     0.06137      0.39419      0.21508      0
C117     C     0.08867      0.46838      0.24244      0
C118     C     0.0797       0.44701      0.28224      0
C119     C     0.1909       0.6379       0.25737      0
C120     C     0.17541      0.61729      0.29717      0
C121     C     0.23252      0.68801      0.32453      0
C122     C     0.2154       0.66824      0.36433      0
C123     C     0.38724      0.82787      0.33946      0
C124     C     0.36657      0.81253      0.37926      0
C125     C     0.43991      0.86299      0.40662      0
C126     C     0.4187       0.84951      0.44642      0
C127     C     0.61036      0.93995      0.42155      0
C128     C     0.58941      0.93353      0.46135      0
C129     C     0.66157      0.95174      0.48871      0
C130     C     0.64131      0.94776      0.52851      0
C131     C     0.80727      0.94753      0.50364      0
C132     C     0.79102      0.95156      0.54344      0
C133     C     0.84485      0.93318      0.5708       0
C134     C     0.83036      0.93965      0.6106       0
C135     C     0.93118      0.8488       0.58573      0
C136     C     0.9235       0.86231      0.62553      0
C137     C     0.94621      0.81173      0.65289      0
C138     C     0.94093      0.8271       0.69269      0
C139     C     0.61276      0.17213      0.00612      0
C140     C     0.44236      0.07787      0.02105      0
C141     C     0.36894      0.0546       0.04841      0
C142     C     0.38964      0.06005      0.08821      0
C143     C     0.21734      0.0468       0.06334      0
C144     C     0.23453      0.04427      0.10314      0
C145     C     0.17717      0.05748      0.1305       0
C146     C     0.19273      0.05247      0.1703       0
C147     C     0.08069      0.13123      0.14543      0
C148     C     0.08976      0.11892      0.18523      0
C149     C     0.06208      0.16548      0.21259      0
C150     C     0.06882      0.1512       0.25239      0
C151     C     0.04364      0.30325      0.22752      0
C152     C     0.04244      0.28409      0.26732      0
C153     C     0.05102      0.35294      0.29468      0
C154     C     0.04732      0.33279      0.33448      0
C155     C     0.115        0.52201      0.30961      0
C156     C     0.10381      0.50055      0.34941      0
C157     C     0.14661      0.57534      0.37677      0
C158     C     0.13336      0.55409      0.41657      0
C159     C     0.27781      0.73554      0.3917       0
C160     C     0.25929      0.71688      0.4315       0
C161     C     0.32614      0.77983      0.45886      0
C162     C     0.30649      0.76254      0.49866      0
C163     C     0.4934       0.89312      0.47379      0
C164     C     0.47195      0.88169      0.51359      0
C165     C     0.54698      0.91786      0.54095      0
C166     C     0.52558      0.90863      0.58075      0
C167     C     0.71055      0.95732      0.55587      0
C168     C     0.69127      0.95584      0.59568      0
C169     C     0.75665      0.95663      0.62304      0
C170     C     0.7386       0.95766      0.66284      0
C171     C     0.8777       0.91289      0.63796      0
C172     C     0.86515      0.9217       0.67777      0
C173     C     0.90536      0.88693      0.70513      0
C174     C     0.89494      0.89797      0.74493      0
C175     C     0.95512      0.77038      0.72005      0
C176     C     0.9523       0.78739      0.75985      0
C177     C     0.95747      0.74375      0.82702      0
C178     C     0.70319      0.24632      0.01856      0
C179     C     0.72219      0.26446      0.05836      0
C180     C     0.53876      0.12434      0.03349      0
C181     C     0.56009      0.13701      0.07329      0
C182     C     0.48514      0.09632      0.10065      0
C183     C     0.5066       0.10688      0.14045      0
C184     C     0.31854      0.04528      0.11558      0
C185     C     0.33843      0.04826      0.15538      0
C186     C     0.27062      0.0422       0.18274      0
C187     C     0.28945      0.04268      0.22254      0
C188     C     0.14142      0.07424      0.19767      0
C189     C     0.15515      0.06682      0.23747      0
C190     C     0.11059      0.09684      0.26483      0
C191     C     0.1223       0.08711      0.30463      0
C192     C     0.04948      0.20433      0.27976      0
C193     C     0.05379      0.18827      0.31956      0
C194     C     0.04306      0.24724      0.34692      0
C195     C     0.04488      0.22962      0.38672      0
C196     C     0.06456      0.40466      0.36184      0
C197     C     0.05841      0.38378      0.40165      0
C198     C     0.08407      0.45768      0.42901      0
C199     C     0.07557      0.43636      0.46881      0
C200     C     0.18307      0.62763      0.44393      0
C201     C     0.16794      0.60688      0.48374      0
C202     C     0.22388      0.67817      0.5111       0
C203     C     0.20707      0.65821      0.5509       0
C204     C     0.37687      0.82029      0.52602      0
C205     C     0.35634      0.8046       0.56582      0
C206     C     0.42928      0.85635      0.59319      0
C207     C     0.40816      0.84248      0.63299      0
C208     C     0.59991      0.93686      0.60811      0
C209     C     0.57886      0.92997      0.64791      0
C210     C     0.65148      0.94987      0.67528      0
C211     C     0.63106      0.9454       0.71508      0
C212     C     0.79923      0.94967      0.6902       0
C213     C     0.78266      0.9532       0.73         0
C214     C     0.83769      0.93653      0.75737      0
C215     C     0.82283      0.94252      0.79717      0
C216     C     0.92746      0.85565      0.77229      0
C217     C     0.91931      0.86877      0.81209      0
C218     C     0.94369      0.8195       0.83946      0
C219     C     0.93792      0.83452      0.87926      0
C220     C     0.93544      0.59534      0.02851      0
C221     C     0.83936      0.40358      0.00364      0
C222     C     0.85339      0.42466      0.04344      0
C223     C     0.8011       0.3519       0.0708       0
C224     C     0.81693      0.37237      0.1106       0
C225     C     0.65381      0.20349      0.08573      0
C226     C     0.67386      0.22017      0.12553      0
C227     C     0.60233      0.16473      0.15289      0
C228     C     0.62313      0.17971      0.19269      0
C229     C     0.43173      0.07383      0.16781      0
C230     C     0.45302      0.08214      0.20762      0
C231     C     0.37925      0.0572       0.23498      0
C232     C     0.40009      0.06314      0.27478      0
C233     C     0.22586      0.04541      0.2499       0
C234     C     0.24335      0.04337      0.28971      0
C235     C     0.18486      0.05486      0.31707      0
C236     C     0.20077      0.05033      0.35687      0
C237     C     0.08511      0.12497      0.33199      0
C238     C     0.09464      0.11307      0.3718       0
C239     C     0.06533      0.15825      0.39916      0
C240     C     0.07254      0.14435      0.43896      0
C241     C     0.04292      0.29361      0.41408      0
C242     C     0.04222      0.27469      0.45388      0
C243     C     0.04905      0.34282      0.48125      0
C244     C     0.04585      0.32284      0.52105      0
C245     C     0.1093       0.51128      0.49617      0
C246     C     0.09854      0.48982      0.53597      0
C247     C     0.13988      0.56473      0.56334      0
C248     C     0.12703      0.54342      0.60314      0
C249     C     0.26849      0.72627      0.57826      0
C250     C     0.25023      0.70737      0.61806      0
C251     C     0.31626      0.77126      0.64543      0
C252     C     0.29681      0.75368      0.68523      0
C253     C     0.48267      0.88751      0.66035      0
C254     C     0.46124      0.87566      0.70015      0
C255     C     0.53629      0.91336      0.72752      0
C256     C     0.51486      0.90368      0.76732      0
C257     C     0.70097      0.9567       0.74244      0
C258     C     0.68146      0.95472      0.78224      0
C259     C     0.74769      0.95727      0.80961      0
C260     C     0.72938      0.9578       0.84941      0
C261     C     0.87153      0.91741      0.82453      0
C262     C     0.85858      0.92576      0.86433      0
C263     C     0.90026      0.89255      0.8917       0
C264     C     0.88941      0.90316      0.9315       0
C265     C     0.95384      0.77896      0.90662      0
C266     C     0.95052      0.79567      0.94642      0
C267     C     0.95775      0.73459      0.97379      0
C268     C     0.95538      0.68701      0.04095      0
C269     C     0.95708      0.70639      0.08075      0
C270     C     0.9065       0.52091      0.05587      0
C271     C     0.91593      0.54232      0.09568      0
C272     C     0.87909      0.46728      0.12304      0
C273     C     0.8907       0.48872      0.16284      0
C274     C     0.7587       0.30225      0.13796      0
C275     C     0.77612      0.32183      0.17777      0
C276     C     0.71275      0.25532      0.20513      0
C277     C     0.73151      0.27373      0.24493      0
C278     C     0.54944      0.13057      0.22005      0
C279     C     0.57072      0.14365      0.25985      0
C280     C     0.49587      0.10149      0.28722      0
C281     C     0.51733      0.11249      0.32702      0
C282     C     0.32844      0.04665      0.30214      0
C283     C     0.34852      0.05013      0.34194      0
C284     C     0.27998      0.04232      0.36931      0
C285     C     0.29903      0.0433       0.40911      0
C286     C     0.14819      0.07041      0.38423      0
C287     C     0.16231      0.06347      0.42403      0
C288     C     0.11634      0.09186      0.4514       0
C289     C     0.12847      0.08259      0.4912       0
C290     C     0.05151      0.19622      0.46632      0
C291     C     0.05631      0.1805       0.50612      0
C292     C     0.04385      0.23836      0.53349      0
C293     C     0.04616      0.22104      0.57329      0
C294     C     0.06137      0.39419      0.54841      0
C295     C     0.0557       0.37343      0.58821      0
C296     C     0.0797       0.44701      0.61558      0
C297     C     0.07166      0.42575      0.65538      0
C298     C     0.17541      0.61729      0.6305       0
C299     C     0.16064      0.59642      0.6703       0
C300     C     0.2154       0.66824      0.69767      0
C301     C     0.1989       0.6481       0.73747      0
C302     C     0.36657      0.81253      0.71259      0
C303     C     0.34619      0.79651      0.75239      0
C304     C     0.4187       0.84951      0.77976      0
C305     C     0.39767      0.83527      0.81956      0
C306     C     0.58941      0.93353      0.79468      0
C307     C     0.56827      0.92617      0.83448      0
C308     C     0.64131      0.94776      0.86184      0
C309     C     0.62075      0.9428       0.90165      0
C310     C     0.79102      0.95156      0.87677      0
C311     C     0.77414      0.95459      0.91657      0
C312     C     0.83036      0.93965      0.94393      0
C313     C     0.81514      0.94514      0.98374      0
C314     C     0.9235       0.86231      0.95886      0
C315     C     0.91489      0.87503      0.99866      0
C316     C     0.94676      0.63685      0.10811      0
C317     C     0.95095      0.65718      0.14791      0
C318     C     0.93201      0.58482      0.17528      0
C319     C     0.93863      0.60581      0.21508      0
C320     C     0.84647      0.4141       0.1902       0
C321     C     0.86012      0.43527      0.23         0
C322     C     0.8091       0.3621       0.25737      0
C323     C     0.82459      0.38271      0.29717      0
C324     C     0.66388      0.21175      0.27229      0
C325     C     0.68374      0.22874      0.31209      0
C326     C     0.61276      0.17213      0.33946      0
C327     C     0.63343      0.18747      0.37926      0
C328     C     0.44236      0.07787      0.35438      0
C329     C     0.46371      0.08664      0.39418      0
C330     C     0.38964      0.06005      0.42155      0
C331     C     0.41059      0.06647      0.46135      0
C332     C     0.23453      0.04427      0.43647      0
C333     C     0.25231      0.04273      0.47627      0
C334     C     0.19273      0.05247      0.50364      0
C335     C     0.20898      0.04844      0.54344      0
C336     C     0.08976      0.11892      0.51856      0
C337     C     0.09974      0.10745      0.55836      0
C338     C     0.06882      0.1512       0.58573      0
C339     C     0.0765       0.13769      0.62553      0
C340     C     0.04244      0.28409      0.60065      0
C341     C     0.04225      0.26541      0.64045      0
C342     C     0.04732      0.33279      0.66781      0
C343     C     0.04462      0.31299      0.70762      0
C344     C     0.10381      0.50055      0.68274      0
C345     C     0.0935       0.47909      0.72254      0
C346     C     0.13336      0.55409      0.7499       0
C347     C     0.12091      0.53272      0.78971      0
C348     C     0.25929      0.71688      0.76483      0
C349     C     0.2413       0.69775      0.80463      0
C350     C     0.30649      0.76254      0.83199      0
C351     C     0.28725      0.74468      0.8718       0
C352     C     0.47195      0.88169      0.84692      0
C353     C     0.45056      0.86943      0.88672      0
C354     C     0.52558      0.90863      0.91408      0
C355     C     0.50413      0.89851      0.95388      0
C356     C     0.69127      0.95584      0.92901      0
C357     C     0.67156      0.95335      0.96881      0
C358     C     0.7386       0.95766      0.99617      0
C359     C     0.95636      0.69675      0.22752      0
C360     C     0.95756      0.71591      0.26732      0
C361     C     0.91133      0.53162      0.24244      0
C362     C     0.9203       0.55299      0.28224      0
C363     C     0.885        0.47799      0.30961      0
C364     C     0.89619      0.49945      0.34941      0
C365     C     0.76748      0.31199      0.32453      0
C366     C     0.7846       0.33176      0.36433      0
C367     C     0.72219      0.26446      0.3917       0
C368     C     0.74071      0.28312      0.4315       0
C369     C     0.56009      0.13701      0.40662      0
C370     C     0.5813       0.15049      0.44642      0
C371     C     0.5066       0.10688      0.47379      0
C372     C     0.52805      0.11831      0.51359      0
C373     C     0.33843      0.04826      0.48871      0
C374     C     0.35869      0.05224      0.52851      0
C375     C     0.28945      0.04268      0.55587      0
C376     C     0.30873      0.04416      0.59568      0
C377     C     0.15515      0.06682      0.5708       0
C378     C     0.16964      0.06035      0.6106       0
C379     C     0.1223       0.08711      0.63796      0
C380     C     0.13485      0.0783       0.67777      0
C381     C     0.05379      0.18827      0.65289      0
C382     C     0.05907      0.1729       0.69269      0
C383     C     0.04488      0.22962      0.72005      0
C384     C     0.0477       0.21261      0.75985      0
C385     C     0.05841      0.38378      0.73498      0
C386     C     0.05324      0.36315      0.77478      0
C387     C     0.07557      0.43636      0.80214      0
C388     C     0.06799      0.41518      0.84194      0
C389     C     0.16794      0.60688      0.81707      0
C390     C     0.15353      0.5859       0.85687      0
C391     C     0.20707      0.65821      0.88423      0
C392     C     0.1909       0.6379       0.92403      0
C393     C     0.35634      0.8046       0.89916      0
C394     C     0.33612      0.78825      0.93896      0
C395     C     0.40816      0.84248      0.96632      0
C396     C     0.57886      0.92997      0.98125      0
C397     C     0.94898      0.64706      0.29468      0
C398     C     0.95268      0.66721      0.33448      0
C399     C     0.93544      0.59534      0.36184      0
C400     C     0.94159      0.61622      0.40165      0
C401     C     0.85339      0.42466      0.37677      0
C402     C     0.86664      0.44591      0.41657      0
C403     C     0.81693      0.37237      0.44393      0
C404     C     0.83206      0.39312      0.48374      0
C405     C     0.67386      0.22017      0.45886      0
C406     C     0.69351      0.23746      0.49866      0
C407     C     0.62313      0.17971      0.52602      0
C408     C     0.64366      0.1954       0.56582      0
C409     C     0.45302      0.08214      0.54095      0
C410     C     0.47442      0.09137      0.58075      0
C411     C     0.40009      0.06314      0.60811      0
C412     C     0.42114      0.07003      0.64791      0
C413     C     0.24335      0.04337      0.62304      0
C414     C     0.2614       0.04234      0.66284      0
C415     C     0.20077      0.05033      0.6902       0
C416     C     0.21734      0.0468       0.73         0
C417     C     0.09464      0.11307      0.70513      0
C418     C     0.10506      0.10203      0.74493      0
C419     C     0.07254      0.14435      0.77229      0
C420     C     0.08069      0.13123      0.81209      0
C421     C     0.04222      0.27469      0.78722      0
C422     C     0.04253      0.25625      0.82702      0
C423     C     0.04585      0.32284      0.85438      0
C424     C     0.04364      0.30325      0.89418      0
C425     C     0.09854      0.48982      0.86931      0
C426     C     0.08867      0.46838      0.90911      0
C427     C     0.12703      0.54342      0.93647      0
C428     C     0.115        0.52201      0.97627      0
C429     C     0.25023      0.70737      0.9514       0
C430     C     0.23252      0.68801      0.9912       0
C431     C     0.95708      0.70639      0.41408      0
C432     C     0.95778      0.72531      0.45388      0
C433     C     0.91593      0.54232      0.42901      0
C434     C     0.92443      0.56364      0.46881      0
C435     C     0.8907       0.48872      0.49617      0
C436     C     0.90146      0.51018      0.53597      0
C437     C     0.77612      0.32183      0.5111       0
C438     C     0.79293      0.34179      0.5509       0
C439     C     0.73151      0.27373      0.57826      0
C440     C     0.74977      0.29263      0.61806      0
C441     C     0.57072      0.14365      0.59319      0
C442     C     0.59184      0.15752      0.63299      0
C443     C     0.51733      0.11249      0.66035      0
C444     C     0.53876      0.12434      0.70015      0
C445     C     0.34852      0.05013      0.67528      0
C446     C     0.36894      0.0546       0.71508      0
C447     C     0.29903      0.0433       0.74244      0
C448     C     0.31854      0.04528      0.78224      0
C449     C     0.16231      0.06347      0.75737      0
C450     C     0.17717      0.05748      0.79717      0
C451     C     0.12847      0.08259      0.82453      0
C452     C     0.14142      0.07424      0.86433      0
C453     C     0.05631      0.1805       0.83946      0
C454     C     0.06208      0.16548      0.87926      0
C455     C     0.04616      0.22104      0.90662      0
C456     C     0.04948      0.20433      0.94642      0
C457     C     0.0557       0.37343      0.92155      0
C458     C     0.05102      0.35294      0.96135      0
C459     C     0.07166      0.42575      0.98871      0
C460     C     0.95095      0.65718      0.48125      0
C461     C     0.95415      0.67716      0.52105      0
C462     C     0.93863      0.60581      0.54841      0
C463     C     0.9443       0.62657      0.58821      0
C464     C     0.86012      0.43527      0.56334      0
C465     C     0.87297      0.45658      0.60314      0
C466     C     0.82459      0.38271      0.6305       0
C467     C     0.83936      0.40358      0.6703       0
C468     C     0.68374      0.22874      0.64543      0
C469     C     0.70319      0.24632      0.68523      0
C470     C     0.63343      0.18747      0.71259      0
C471     C     0.65381      0.20349      0.75239      0
C472     C     0.46371      0.08664      0.72752      0
C473     C     0.48514      0.09632      0.76732      0
C474     C     0.41059      0.06647      0.79468      0
C475     C     0.43173      0.07383      0.83448      0
C476     C     0.25231      0.04273      0.80961      0
C477     C     0.27062      0.0422       0.84941      0
C478     C     0.20898      0.04844      0.87677      0
C479     C     0.22586      0.04541      0.91657      0
C480     C     0.09974      0.10745      0.8917       0
C481     C     0.11059      0.09684      0.9315       0
C482     C     0.0765       0.13769      0.95886      0
C483     C     0.08511      0.12497      0.99866      0
C484     C     0.04225      0.26541      0.97379      0
C485     C     0.95756      0.71591      0.60065      0
C486     C     0.9203       0.55299      0.61558      0
C487     C     0.92834      0.57425      0.65538      0
C488     C     0.89619      0.49945      0.68274      0
C489     C     0.9065       0.52091      0.72254      0
C490     C     0.7846       0.33176      0.69767      0
C491     C     0.8011       0.3519       0.73747      0
C492     C     0.74071      0.28312      0.76483      0
C493     C     0.7587       0.30225      0.80463      0
C494     C     0.5813       0.15049      0.77976      0
C495     C     0.60233      0.16473      0.81956      0
C496     C     0.52805      0.11831      0.84692      0
C497     C     0.54944      0.13057      0.88672      0
C498     C     0.35869      0.05224      0.86184      0
C499     C     0.37925      0.0572       0.90165      0
C500     C     0.30873      0.04416      0.92901      0
C501     C     0.32844      0.04665      0.96881      0
C502     C     0.16964      0.06035      0.94393      0
C503     C     0.18486      0.05486      0.98374      0
C504     C     0.95268      0.66721      0.66781      0
C505     C     0.95538      0.68701      0.70762      0
C506     C     0.94159      0.61622      0.73498      0
C507     C     0.94676      0.63685      0.77478      0
C508     C     0.86664      0.44591      0.7499       0
C509     C     0.87909      0.46728      0.78971      0
C510     C     0.83206      0.39312      0.81707      0
C511     C     0.84647      0.4141       0.85687      0
C512     C     0.69351      0.23746      0.83199      0
C513     C     0.71275      0.25532      0.8718       0
C514     C     0.64366      0.1954       0.89916      0
C515     C     0.66388      0.21175      0.93896      0
C516     C     0.47442      0.09137      0.91408      0
C517     C     0.49587      0.10149      0.95388      0
C518     C     0.42114      0.07003      0.98125      0
C519     C     0.2614       0.04234      0.99617      0
C520     C     0.95778      0.72531      0.78722      0
C521     C     0.92443      0.56364      0.80214      0
C522     C     0.93201      0.58482      0.84194      0
C523     C     0.90146      0.51018      0.86931      0
C524     C     0.91133      0.53162      0.90911      0
C525     C     0.79293      0.34179      0.88423      0
C526     C     0.8091       0.3621       0.92403      0
C527     C     0.74977      0.29263      0.9514       0
C528     C     0.76748      0.31199      0.9912       0
C529     C     0.59184      0.15752      0.96632      0
C530     C     0.95415      0.67716      0.85438      0
C531     C     0.95636      0.69675      0.89418      0
C532     C     0.9443       0.62657      0.92155      0
C533     C     0.94898      0.64706      0.96135      0
C534     C     0.87297      0.45658      0.93647      0
C535     C     0.885        0.47799      0.97627      0
C536     C     0.92834      0.57425      0.98871      0


