data_Co-DOBDC

_audit_creation_method RASPA-1.0
_audit_creation_date 2012-1-5
_audit_author_name 'Ozgur Yazaydin'

_cell_length_a    25.885
_cell_length_b    25.885
_cell_length_c    6.8058
_cell_angle_alpha 90
_cell_angle_beta  90
_cell_angle_gamma 120
_cell_volume      3949.17

_symmetry_cell_setting          trigonal
_symmetry_space_group_name_Hall '-R 3'
_symmetry_space_group_name_H-M  'R -3'
_symmetry_Int_Tables_number     148

loop_
_symmetry_equiv_pos_as_xyz
 'x,y,z'
 '-y,x-y,z'
 '-x+y,-x,z'
 '-x,-y,-z'
 'y,-x+y,-z'
 'x-y,x,-z'
 'x+2/3,y+1/3,z+1/3'
 '-y+2/3,x-y+1/3,z+1/3'
 '-x+y+2/3,-x+1/3,z+1/3'
 '-x+2/3,-y+1/3,-z+1/3'
 'y+2/3,-x+y+1/3,-z+1/3'
 'x-y+2/3,x+1/3,-z+1/3'
 'x+1/3,y+2/3,z+2/3'
 '-y+1/3,x-y+2/3,z+2/3'
 '-x+y+1/3,-x+2/3,z+2/3'
 '-x+1/3,-y+2/3,-z+2/3'
 'y+1/3,-x+y+2/3,-z+2/3'
 'x-y+1/3,x+2/3,-z+2/3'

loop_
_atom_site_label
_atom_site_type_symbol
_atom_site_fract_x
_atom_site_fract_y
_atom_site_fract_z
_atom_site_charge
C1       C     0.0869       0.3474       0.5947       0.832
C2       C     0.1264       0.3394       0.4537      -0.292
C3       C     0.0111       0.4553       0.9237       0.315
C4       C     0.0169       0.5018       0.80819     -0.110
H1       H     0.0284       0.5037       0.6778       0.176
O1       O     0.1042       0.3653       0.7666      -0.684
O2       O     0.0221       0.4144       0.8387      -0.645
Co1      Co    0.0485       0.36211      0.97542      1.139
O3       O     0.32913      0.03257      0.86576     -0.731
