data_CoBDP

_audit_creation_method RASPA-1.0
_audit_creation_date 2012-1-2
_audit_author_name 'Jasper van Baten'

_cell_length_a    13.253
_cell_length_b    13.253
_cell_length_c    13.995
_cell_angle_alpha 90
_cell_angle_beta  90
_cell_angle_gamma 90
_cell_volume      2458.11

_symmetry_cell_setting          triclinic
_symmetry_space_group_name_Hall 'P 1'
_symmetry_space_group_name_H-M  'P 1'
_symmetry_Int_Tables_number     1

_symmetry_equiv_pos_as_xyz 'x,y,z'

loop_
_atom_site_label
_atom_site_type_symbol
_atom_site_fract_x
_atom_site_fract_y
_atom_site_fract_z
_atom_site_charge
C1       C      0.2484       0.00204      0.0741       0 
C2       C      0.7516       0.99796      0.57413      0 
C3       C      0.7516       0.00204      0.42587      0 
C4       C      0.2484       0.99796      0.9259       0 
C5       C      0.42413      0            0            0 
C6       C      0.57587      0            0.49996      0 
C7       C      0.47619      0.99713      0.08739      0 
C8       C      0.52381      0.00287      0.58742      0 
C9       C      0.52381      0.99713      0.41258      0 
C10      C      0.47619      0.00287      0.91261      0 
C11      C      0.57768      0.99721      0.08432      0 
C12      C      0.42232      0.00279      0.58428      0 
C13      C      0.42232      0.99721      0.41572      0 
C14      C      0.57768      0.00279      0.91568      0 
C15      C      0.63367      0            0            0 
C16      C      0.36633      0            0.49996      0 
C17      C      0.74542      0            0            0 
C18      C      0.25458      0            0.49996      0 
C19      C      0.81408      0.97518      0.07753      0 
C20      C      0.18592      0.02482      0.57749      0 
C21      C      0.18592      0.97518      0.42251      0 
C22      C      0.81408      0.02482      0.92247      0 
C23      C      0.02928      0.77711      0.17478      0 
C24      C      0.97072      0.22289      0.67481      0 
C25      C      0.97072      0.77711      0.32519      0 
C26      C      0.02928      0.22289      0.82522      0 
C27      C      0.04241      0.21467      0.1865       0 
C28      C      0.95759      0.78533      0.68653      0 
C29      C      0.95759      0.21467      0.31347      0 
C30      C      0.04241      0.78533      0.8135       0 
C31      C      0            0.27979      0.25002      0 
C32      C      0            0.72021      0.74998      0 
C33      C      0            0.37999      0.25002      0 
C34      C      0            0.62001      0.74998      0 
C35      C      0.31208      0            0            0 
C36      C      0.68792      0            0.49996      0 
C37      C      0.02807      0.44631      0.17678      0 
C38      C      0.97193      0.55369      0.67681      0 
C39      C      0.97193      0.44631      0.32319      0 
C40      C      0.02807      0.55369      0.82322      0 
C41      C      0.03079      0.55029      0.16992      0 
C42      C      0.96921      0.44971      0.66988      0 
C43      C      0.96921      0.55029      0.33012      0 
C44      C      0.03079      0.44971      0.83008      0 
C45      C      0            0.60681      0.25002      0 
C46      C      0            0.39319      0.74998      0 
C47      C      0            0.71199      0.25002      0 
C48      C      0            0.28801      0.74998      0 
Co49     Co     0.02943      0.99743      0.12733      0 
Co50     Co     0.97057      0.00257      0.6273       0 
Co51     Co     0.97057      0.99743      0.3727       0 
Co52     Co     0.02943      0.00257      0.87267      0 
H53      H      0.27058      0.00226      0.13862      0 
H54      H      0.72942      0.99774      0.63859      0 
H55      H      0.72942      0.00226      0.36141      0 
H56      H      0.27058      0.99774      0.86138      0 
H57      H      0.08081      0.23489      0.13248      0 
H58      H      0.91919      0.76511      0.63251      0 
H59      H      0.91919      0.23489      0.36749      0 
H60      H      0.08081      0.76511      0.86752      0 
H61      H      0.0498       0.41296      0.12033      0 
H62      H      0.9502       0.58704      0.62029      0 
H63      H      0.9502       0.41296      0.37971      0 
H64      H      0.0498       0.58704      0.87967      0 
H65      H      0.05259      0.58259      0.1129       0 
H66      H      0.94741      0.41741      0.61293      0 
H67      H      0.94741      0.58259      0.38707      0 
H68      H      0.05259      0.41741      0.8871       0 
H69      H      0.44111      0.99517      0.14662      0 
H70      H      0.55889      0.00483      0.64659      0 
H71      H      0.55889      0.99517      0.35341      0 
H72      H      0.44111      0.00483      0.85338      0 
H73      H      0.61337      0.99532      0.14312      0 
H74      H      0.38663      0.00468      0.64309      0 
H75      H      0.38663      0.99532      0.35691      0 
H76      H      0.61337      0.00468      0.85688      0 
N77      N      0.02392      0.12292      0.20872      0 
N78      N      0.97608      0.87708      0.70868      0 
N79      N      0.97608      0.12292      0.29132      0 
N80      N      0.02392      0.87708      0.79128      0 
N81      N      0.15212      0.00521      0.05023      0 
N82      N      0.84788      0.99479      0.5502       0 
N83      N      0.84788      0.00521      0.4498       0 
N84      N      0.15212      0.99479      0.94977      0 
N85      N      0.9053       0.98068      0.04637      0 
N86      N      0.0947       0.01932      0.54641      0 
N87      N      0.0947       0.98068      0.45359      0 
N88      N      0.9053       0.01932      0.95363      0 
N89      N      0.02271      0.87867      0.20693      0 
N90      N      0.97729      0.12133      0.7069       0 
N91      N      0.97729      0.87867      0.2931       0 
N92      N      0.02271      0.12133      0.79307      0 
H93      H      0.79341      0.93232      0.12819      0 
H94      H      0.20456      0.01351      0.64216      0 
H95      H      0.20659      0.93232      0.37178      0 
H96      H      0.79544      0.01351      0.85788      0 
H97      H      0.01652      0.76096      0.10982      0 
H98      H      0.92092      0.24191      0.62944      0 
H99      H      0.92092      0.75809      0.37056      0 
H100     H      0.01652      0.23904      0.89018      0 


