data_CoBDP-Dubbeldam

_audit_creation_method RASPA-1.0
_audit_creation_date 2012-1-2
_audit_author_name 'David Dubbeldam'

_cell_length_a    13.2529
_cell_length_b    13.253
_cell_length_c    13.995
_cell_angle_alpha 90
_cell_angle_beta  90
_cell_angle_gamma 90
_cell_volume      2458.09

_symmetry_cell_setting          triclinic
_symmetry_space_group_name_Hall 'P 1'
_symmetry_space_group_name_H-M  'P 1'
_symmetry_Int_Tables_number     1

_symmetry_equiv_pos_as_xyz 'x,y,z'

loop_
_atom_site_label
_atom_site_type_symbol
_atom_site_fract_x
_atom_site_fract_y
_atom_site_fract_z
_atom_site_charge
Co1      Co     0.0294       0.9974       0.1273       0 
N2       N      0.0239       0.1229       0.2087       0 
N3       N      0.1521       0.0052       0.0502       0 
N4       N      0.9053       0.9807       0.0464       0 
N5       N      0.0227       0.8787       0.2069       0 
C6       C      0.2484       0.002        0.0741       0 
H7       H      0.27111      0.00115      0.15266      0 
C8       C      0.0424       0.2147       0.1865       0 
H9       H      0.08931      0.23264      0.12037      0 
C10      C      0            0.2798       0.25         0 
C11      C      0            0.38         0.25         0 
C12      C      0.3121       0            0            0 
C13      C      0.0281       0.4463       0.1768       0 
H14      H      0.05547      0.4153       0.10537      0 
C15      C      0.0308       0.5503       0.1699       0 
H16      H      0.05735      0.58764      0.10096      0 
C17      C      0            0.6068       0.25         0 
C18      C      0            0.712        0.25         0 
C19      C      0.4241       0            0            0 
C20      C      0.4762       0.9971       0.0874       0 
H21      H      0.43245      0.99478      0.1575       0 
C22      C      0.5777       0.9972       0.0843       0 
H23      H      0.62309      0.9949       0.15346      0 
C24      C      0.6337       0            0            0 
C25      C      0.7454       0            0            0 
C26      C      0.8141       0.9752       0.0775       0 
C27      C      0.0293       0.7771       0.1748       0 
Co28     Co     0.9706       0.9974       0.3727       0 
Co29     Co     0.0294       0.0026       0.8727       0 
N30      N      0.9761       0.1229       0.2913       0 
N31      N      0.1521       0.9948       0.9498       0 
N32      N      0.8479       0.0052       0.4498       0 
N33      N      0.9053       0.0193       0.9536       0 
N34      N      0.0947       0.9807       0.4536       0 
N35      N      0.9773       0.8787       0.2931       0 
C36      C      0.2484       0.998        0.9259       0 
H37      H      0.27111      0.99885      0.84734      0 
C38      C      0.9576       0.2147       0.3135       0 
H39      H      0.91241      0.24497      0.37661      0 
C40      C      0.9719       0.4463       0.3232       0 
H41      H      0.94453      0.4153       0.39463      0 
C42      C      0.9692       0.5503       0.3301       0 
H43      H      0.94315      0.59053      0.39774      0 
C44      C      0.4762       0.0029       0.9126       0 
H45      H      0.43245      0.00522      0.8425       0 
C46      C      0.5777       0.0028       0.9157       0 
H47      H      0.62309      0.0051       0.84654      0 
C48      C      0.8141       0.0248       0.9225       0 
C49      C      0.9707       0.7771       0.3252       0 
Co50     Co     0.9706       0.0026       0.6273       0 
N51      N      0.9761       0.8771       0.7087       0 
N52      N      0.8479       0.9948       0.5502       0 
N53      N      0.0947       0.0193       0.5464       0 
N54      N      0.9773       0.1213       0.7069       0 
C55      C      0.7516       0.998        0.5741       0 
H56      H      0.72889      0.99885      0.65266      0 
C57      C      0.9576       0.7853       0.6865       0 
H58      H      0.91069      0.76736      0.62037      0 
C59      C      0            0.7202       0.75         0 
C60      C      0            0.62         0.75         0 
C61      C      0.6879       0            0.5          0 
C62      C      0.9719       0.5537       0.6768       0 
H63      H      0.94453      0.5847       0.60537      0 
C64      C      0.9692       0.4497       0.6699       0 
H65      H      0.94265      0.41236      0.60096      0 
C66      C      0            0.3932       0.75         0 
C67      C      0            0.288        0.75         0 
C68      C      0.5759       0            0.5          0 
C69      C      0.5238       0.0029       0.5874       0 
H70      H      0.56755      0.00522      0.6575       0 
C71      C      0.4223       0.0028       0.5843       0 
H72      H      0.37691      0.0051       0.65346      0 
C73      C      0.3663       0            0.5          0 
C74      C      0.2546       0            0.5          0 
C75      C      0.1859       0.0248       0.5775       0 
C76      C      0.9707       0.2229       0.6748       0 
N77      N      0.0239       0.8771       0.7913       0 
N78      N      0.0227       0.1213       0.7931       0 
C79      C      0.7516       0.002        0.4259       0 
H80      H      0.72102      0.0009       0.34977      0 
C81      C      0.0424       0.7853       0.8135       0 
H82      H      0.08931      0.76736      0.87963      0 
C83      C      0.0281       0.5537       0.8232       0 
H84      H      0.05547      0.5847       0.89463      0 
C85      C      0.0308       0.4497       0.8301       0 
H86      H      0.05735      0.41236      0.89904      0 
C87      C      0.5238       0.9971       0.4126       0 
H88      H      0.56755      0.99478      0.3425       0 
C89      C      0.4223       0.9972       0.4157       0 
H90      H      0.37691      0.9949       0.34654      0 
C91      C      0.1859       0.9752       0.4225       0 
C92      C      0.0293       0.2229       0.8252       0 
H93      H      0.05514      0.76013      0.09878      0 
H94      H      0.79911      0.04647      0.84496      0 
H95      H      0.94702      0.25564      0.60289      0 
H96      H      0.20089      0.95353      0.34496      0 
H97      H      0.05298      0.25564      0.89711      0 
H98      H      0.94702      0.74436      0.39711      0 
H99      H      0.78302      0.95527      0.15107      0 
H100     H      0.20089      0.04647      0.65504      0 


