data_MAF-X8

_audit_creation_method RASPA-1.0
_audit_creation_date 2012-10-3
_audit_author_name ''

_cell_length_a    13.9249
_cell_length_b    23.653
_cell_length_c    23.637
_cell_angle_alpha 90
_cell_angle_beta  90
_cell_angle_gamma 90
_cell_volume      7785.22

_symmetry_cell_setting          triclinic
_symmetry_space_group_name_Hall 'P 1'
_symmetry_space_group_name_H-M  'P 1'
_symmetry_Int_Tables_number     1

_symmetry_equiv_pos_as_xyz 'x,y,z'

loop_
_atom_site_label
_atom_site_type_symbol
_atom_site_fract_x
_atom_site_fract_y
_atom_site_fract_z
C1       C      0.5          0.25         0.6036 
C1       C      0            0.75         0.1036 
C1       C      0.5          0.75         0.8964 
C1       C      0            0.25         0.3964 
C1       C      0.5          0.75         0.3964 
C1       C      0            0.25         0.8964 
C1       C      0.5          0.25         0.1036 
C1       C      0            0.75         0.6036 
C2       C      0.5          0.25         0.6659 
C2       C      0            0.75         0.1659 
C2       C      0.5          0.75         0.8341 
C2       C      0            0.25         0.3341 
C2       C      0.5          0.75         0.3341 
C2       C      0            0.25         0.8341 
C2       C      0.5          0.25         0.1659 
C2       C      0            0.75         0.6659 
C3       C      0.4378       0.2161       0.6962 
C3       C      0.9378       0.7161       0.1962 
C3       C      0.0622       0.7839       0.1962 
C3       C      0.5622       0.2839       0.6962 
C3       C      0.5622       0.7161       0.8038 
C3       C      0.0622       0.2161       0.3038 
C3       C      0.9378       0.2839       0.3038 
C3       C      0.4378       0.7839       0.8038 
C3       C      0.5622       0.7839       0.3038 
C3       C      0.0622       0.2839       0.8038 
C3       C      0.9378       0.2161       0.8038 
C3       C      0.4378       0.7161       0.3038 
C3       C      0.4378       0.2839       0.1962 
C3       C      0.9378       0.7839       0.6962 
C3       C      0.0622       0.7161       0.6962 
C3       C      0.5622       0.2161       0.1962 
C4       C      0.4369       0.2173       0.7565 
C4       C      0.9369       0.7173       0.2565 
C4       C      0.0631       0.7827       0.2565 
C4       C      0.5631       0.2827       0.7565 
C4       C      0.5631       0.7173       0.7435 
C4       C      0.0631       0.2173       0.2435 
C4       C      0.9369       0.2827       0.2435 
C4       C      0.4369       0.7827       0.7435 
C4       C      0.5631       0.7827       0.2435 
C4       C      0.0631       0.2827       0.7435 
C4       C      0.9369       0.2173       0.7435 
C4       C      0.4369       0.7173       0.2435 
C4       C      0.4369       0.2827       0.2565 
C4       C      0.9369       0.7827       0.7565 
C4       C      0.0631       0.7173       0.7565 
C4       C      0.5631       0.2173       0.2565 
C5       C      0.5          0.25         0.7867 
C5       C      0            0.75         0.2867 
C5       C      0.5          0.75         0.7133 
C5       C      0            0.25         0.2133 
C5       C      0.5          0.75         0.2133 
C5       C      0            0.25         0.7133 
C5       C      0.5          0.25         0.2867 
C5       C      0            0.75         0.7867 
C6       C      0.5          0.25         0.8478 
C6       C      0            0.75         0.3478 
C6       C      0.5          0.75         0.6522 
C6       C      0            0.25         0.1522 
C6       C      0.5          0.75         0.1522 
C6       C      0            0.25         0.6522 
C6       C      0.5          0.25         0.3478 
C6       C      0            0.75         0.8478 
C7       C      0.4237       0.2652       0.8847 
C7       C      0.9237       0.7652       0.3847 
C7       C      0.0763       0.7348       0.3847 
C7       C      0.5763       0.2348       0.8847 
C7       C      0.5763       0.7652       0.6153 
C7       C      0.0763       0.2652       0.1153 
C7       C      0.9237       0.2348       0.1153 
C7       C      0.4237       0.7348       0.6153 
C7       C      0.5763       0.7348       0.1153 
C7       C      0.0763       0.2348       0.6153 
C7       C      0.9237       0.2652       0.6153 
C7       C      0.4237       0.7652       0.1153 
C7       C      0.4237       0.2348       0.3847 
C7       C      0.9237       0.7348       0.8847 
C7       C      0.0763       0.7652       0.8847 
C7       C      0.5763       0.2652       0.3847 
C8       C      0.3255       0.2849       0.8684 
C8       C      0.8255       0.7849       0.3684 
C8       C      0.1745       0.7151       0.3684 
C8       C      0.6745       0.2151       0.8684 
C8       C      0.6745       0.7849       0.6316 
C8       C      0.1745       0.2849       0.1316 
C8       C      0.8255       0.2151       0.1316 
C8       C      0.3255       0.7151       0.6316 
C8       C      0.6745       0.7151       0.1316 
C8       C      0.1745       0.2151       0.6316 
C8       C      0.8255       0.2849       0.6316 
C8       C      0.3255       0.7849       0.1316 
C8       C      0.3255       0.2151       0.3684 
C8       C      0.8255       0.7151       0.8684 
C8       C      0.1745       0.7849       0.8684 
C8       C      0.6745       0.2849       0.3684 
C9       C      0.25         0.3197       0.5    
C9       C      0.75         0.8197       0      
C9       C      0.25         0.6803       0      
C9       C      0.75         0.1803       0.5    
C9       C      0.75         0.6803       0.5    
C9       C      0.25         0.1803       0      
C9       C      0.75         0.3197       0      
C9       C      0.25         0.8197       0.5    
C10      C      0.25         0.3828       0.5    
C10      C      0.75         0.8828       0      
C10      C      0.25         0.6172       0      
C10      C      0.75         0.1172       0.5    
C10      C      0.75         0.6172       0.5    
C10      C      0.25         0.1172       0      
C10      C      0.75         0.3828       0      
C10      C      0.25         0.8828       0.5    
C11      C      0.309        0.4124       0.5364 
C11      C      0.809        0.9124       0.0364 
C11      C      0.191        0.5876       0.0364 
C11      C      0.691        0.0876       0.5364 
C11      C      0.691        0.9124       0.9636 
C11      C      0.191        0.4124       0.4636 
C11      C      0.809        0.0876       0.4636 
C11      C      0.309        0.5876       0.9636 
C11      C      0.691        0.5876       0.4636 
C11      C      0.191        0.0876       0.9636 
C11      C      0.809        0.4124       0.9636 
C11      C      0.309        0.9124       0.4636 
C11      C      0.309        0.0876       0.0364 
C11      C      0.809        0.5876       0.5364 
C11      C      0.191        0.9124       0.5364 
C11      C      0.691        0.4124       0.0364 
C12      C      0.3087       0.471        0.5369 
C12      C      0.8087       0.971        0.0369 
C12      C      0.1913       0.529        0.0369 
C12      C      0.6913       0.029        0.5369 
C12      C      0.6913       0.971        0.9631 
C12      C      0.1913       0.471        0.4631 
C12      C      0.8087       0.029        0.4631 
C12      C      0.3087       0.529        0.9631 
C12      C      0.6913       0.529        0.4631 
C12      C      0.1913       0.029        0.9631 
C12      C      0.8087       0.471        0.9631 
C12      C      0.3087       0.971        0.4631 
C12      C      0.3087       0.029        0.0369 
C12      C      0.8087       0.529        0.5369 
C12      C      0.1913       0.971        0.5369 
C12      C      0.6913       0.471        0.0369 
C13      C      0.25         0.5023       0.5    
C13      C      0.75         0.0023       0      
C13      C      0.25         0.4977       0      
C13      C      0.75         0.9977       0.5    
C13      C      0.75         0.4977       0.5    
C13      C      0.25         0.9977       0      
C13      C      0.75         0.5023       0      
C13      C      0.25         0.0023       0.5    
C14      C      0.25         0.5645       0.5    
C14      C      0.75         0.0645       0      
C14      C      0.25         0.4355       0      
C14      C      0.75         0.9355       0.5    
C14      C      0.75         0.4355       0.5    
C14      C      0.25         0.9355       0      
C14      C      0.75         0.5645       0      
C14      C      0.25         0.0645       0.5    
C15      C      0.3288       0.6012       0.4947 
C15      C      0.8288       0.1012       0.9947 
C15      C      0.1712       0.3988       0.9947 
C15      C      0.6712       0.8988       0.4947 
C15      C      0.6712       0.1012       0.0053 
C15      C      0.1712       0.6012       0.5053 
C15      C      0.8288       0.8988       0.5053 
C15      C      0.3288       0.3988       0.0053 
C15      C      0.6712       0.3988       0.5053 
C15      C      0.1712       0.8988       0.0053 
C15      C      0.8288       0.6012       0.0053 
C15      C      0.3288       0.1012       0.5053 
C15      C      0.3288       0.8988       0.9947 
C15      C      0.8288       0.3988       0.4947 
C15      C      0.1712       0.1012       0.4947 
C15      C      0.6712       0.6012       0.9947 
C16      C      0.4343       0.5874       0.4898 
C16      C      0.9343       0.0874       0.9898 
C16      C      0.0657       0.4126       0.9898 
C16      C      0.5657       0.9126       0.4898 
C16      C      0.5657       0.0874       0.0102 
C16      C      0.0657       0.5874       0.5102 
C16      C      0.9343       0.9126       0.5102 
C16      C      0.4343       0.4126       0.0102 
C16      C      0.5657       0.4126       0.5102 
C16      C      0.0657       0.9126       0.0102 
C16      C      0.9343       0.5874       0.0102 
C16      C      0.4343       0.0874       0.5102 
C16      C      0.4343       0.9126       0.9898 
C16      C      0.9343       0.4126       0.4898 
C16      C      0.0657       0.0874       0.4898 
C16      C      0.5657       0.5874       0.9898 
H11A     H      0.3495       0.3929       0.5608 
H11A     H      0.8495       0.8929       0.0608 
H11A     H      0.1505       0.6071       0.0608 
H11A     H      0.6505       0.1071       0.5608 
H11A     H      0.6505       0.8929       0.9392 
H11A     H      0.1505       0.3929       0.4392 
H11A     H      0.8495       0.1071       0.4392 
H11A     H      0.3495       0.6071       0.9392 
H11A     H      0.6505       0.6071       0.4392 
H11A     H      0.1505       0.1071       0.9392 
H11A     H      0.8495       0.3929       0.9392 
H11A     H      0.3495       0.8929       0.4392 
H11A     H      0.3495       0.1071       0.0608 
H11A     H      0.8495       0.6071       0.5608 
H11A     H      0.1505       0.8929       0.5608 
H11A     H      0.6505       0.3929       0.0608 
H12A     H      0.3482       0.49         0.5623 
H12A     H      0.8482       0.99         0.0623 
H12A     H      0.1518       0.51         0.0623 
H12A     H      0.6518       0.01         0.5623 
H12A     H      0.6518       0.99         0.9377 
H12A     H      0.1518       0.49         0.4377 
H12A     H      0.8482       0.01         0.4377 
H12A     H      0.3482       0.51         0.9377 
H12A     H      0.6518       0.51         0.4377 
H12A     H      0.1518       0.01         0.9377 
H12A     H      0.8482       0.49         0.9377 
H12A     H      0.3482       0.99         0.4377 
H12A     H      0.3482       0.01         0.0623 
H12A     H      0.8482       0.51         0.5623 
H12A     H      0.1518       0.99         0.5623 
H12A     H      0.6518       0.49         0.0623 
H16A     H      0.4706       0.6219       0.4878 
H16A     H      0.9706       0.1219       0.9878 
H16A     H      0.0294       0.3781       0.9878 
H16A     H      0.5294       0.8781       0.4878 
H16A     H      0.5294       0.1219       0.0122 
H16A     H      0.0294       0.6219       0.5122 
H16A     H      0.9706       0.8781       0.5122 
H16A     H      0.4706       0.3781       0.0122 
H16A     H      0.5294       0.3781       0.5122 
H16A     H      0.0294       0.8781       0.0122 
H16A     H      0.9706       0.6219       0.0122 
H16A     H      0.4706       0.1219       0.5122 
H16A     H      0.4706       0.8781       0.9878 
H16A     H      0.9706       0.3781       0.4878 
H16A     H      0.0294       0.1219       0.4878 
H16A     H      0.5294       0.6219       0.9878 
H16B     H      0.4452       0.5655       0.4562 
H16B     H      0.9452       0.0655       0.9562 
H16B     H      0.0548       0.4345       0.9562 
H16B     H      0.5548       0.9345       0.4562 
H16B     H      0.5548       0.0655       0.0438 
H16B     H      0.0548       0.5655       0.5438 
H16B     H      0.9452       0.9345       0.5438 
H16B     H      0.4452       0.4345       0.0438 
H16B     H      0.5548       0.4345       0.5438 
H16B     H      0.0548       0.9345       0.0438 
H16B     H      0.9452       0.5655       0.0438 
H16B     H      0.4452       0.0655       0.5438 
H16B     H      0.4452       0.9345       0.9562 
H16B     H      0.9452       0.4345       0.4562 
H16B     H      0.0548       0.0655       0.4562 
H16B     H      0.5548       0.5655       0.9562 
H16C     H      0.4543       0.5661       0.5223 
H16C     H      0.9543       0.0661       0.0223 
H16C     H      0.0457       0.4339       0.0223 
H16C     H      0.5457       0.9339       0.5223 
H16C     H      0.5457       0.0661       0.9777 
H16C     H      0.0457       0.5661       0.4777 
H16C     H      0.9543       0.9339       0.4777 
H16C     H      0.4543       0.4339       0.9777 
H16C     H      0.5457       0.4339       0.4777 
H16C     H      0.0457       0.9339       0.9777 
H16C     H      0.9543       0.5661       0.9777 
H16C     H      0.4543       0.0661       0.4777 
H16C     H      0.4543       0.9339       0.0223 
H16C     H      0.9543       0.4339       0.5223 
H16C     H      0.0457       0.0661       0.5223 
H16C     H      0.5457       0.5661       0.0223 
H3A      H      0.396        0.1921       0.677  
H3A      H      0.896        0.6921       0.177  
H3A      H      0.104        0.8079       0.177  
H3A      H      0.604        0.3079       0.677  
H3A      H      0.604        0.6921       0.823  
H3A      H      0.104        0.1921       0.323  
H3A      H      0.896        0.3079       0.323  
H3A      H      0.396        0.8079       0.823  
H3A      H      0.604        0.8079       0.323  
H3A      H      0.104        0.3079       0.823  
H3A      H      0.896        0.1921       0.823  
H3A      H      0.396        0.6921       0.323  
H3A      H      0.396        0.3079       0.177  
H3A      H      0.896        0.8079       0.677  
H3A      H      0.104        0.6921       0.677  
H3A      H      0.604        0.1921       0.177  
H4A      H      0.3923       0.1954       0.7758 
H4A      H      0.8923       0.6954       0.2758 
H4A      H      0.1077       0.8046       0.2758 
H4A      H      0.6077       0.3046       0.7758 
H4A      H      0.6077       0.6954       0.7242 
H4A      H      0.1077       0.1954       0.2242 
H4A      H      0.8923       0.3046       0.2242 
H4A      H      0.3923       0.8046       0.7242 
H4A      H      0.6077       0.8046       0.2242 
H4A      H      0.1077       0.3046       0.7242 
H4A      H      0.8923       0.1954       0.7242 
H4A      H      0.3923       0.6954       0.2242 
H4A      H      0.3923       0.3046       0.2758 
H4A      H      0.8923       0.8046       0.7758 
H4A      H      0.1077       0.6954       0.7758 
H4A      H      0.6077       0.1954       0.2758 
H8A      H      0.2875       0.2905       0.9019 
H8A      H      0.7875       0.7905       0.4019 
H8A      H      0.2125       0.7095       0.4019 
H8A      H      0.7125       0.2095       0.9019 
H8A      H      0.7125       0.7905       0.5981 
H8A      H      0.2125       0.2905       0.0981 
H8A      H      0.7875       0.2095       0.0981 
H8A      H      0.2875       0.7095       0.5981 
H8A      H      0.7125       0.7095       0.0981 
H8A      H      0.2125       0.2095       0.5981 
H8A      H      0.7875       0.2905       0.5981 
H8A      H      0.2875       0.7905       0.0981 
H8A      H      0.2875       0.2095       0.4019 
H8A      H      0.7875       0.7095       0.9019 
H8A      H      0.2125       0.7905       0.9019 
H8A      H      0.7125       0.2905       0.4019 
H8B      H      0.2955       0.257        0.8448 
H8B      H      0.7955       0.757        0.3448 
H8B      H      0.2045       0.743        0.3448 
H8B      H      0.7045       0.243        0.8448 
H8B      H      0.7045       0.757        0.6552 
H8B      H      0.2045       0.257        0.1552 
H8B      H      0.7955       0.243        0.1552 
H8B      H      0.2955       0.743        0.6552 
H8B      H      0.7045       0.743        0.1552 
H8B      H      0.2045       0.243        0.6552 
H8B      H      0.7955       0.257        0.6552 
H8B      H      0.2955       0.757        0.1552 
H8B      H      0.2955       0.243        0.3448 
H8B      H      0.7955       0.743        0.8448 
H8B      H      0.2045       0.757        0.8448 
H8B      H      0.7045       0.257        0.3448 
H8C      H      0.3304       0.3199       0.8481 
H8C      H      0.8304       0.8199       0.3481 
H8C      H      0.1696       0.6801       0.3481 
H8C      H      0.6696       0.1801       0.8481 
H8C      H      0.6696       0.8199       0.6519 
H8C      H      0.1696       0.3199       0.1519 
H8C      H      0.8304       0.1801       0.1519 
H8C      H      0.3304       0.6801       0.6519 
H8C      H      0.6696       0.6801       0.1519 
H8C      H      0.1696       0.1801       0.6519 
H8C      H      0.8304       0.3199       0.6519 
H8C      H      0.3304       0.8199       0.1519 
H8C      H      0.3304       0.1801       0.3481 
H8C      H      0.8304       0.6801       0.8481 
H8C      H      0.1696       0.8199       0.8481 
H8C      H      0.6696       0.3199       0.3481 
N1       N      0.4532       0.2601       0.9386 
N1       N      0.9532       0.7601       0.4386 
N1       N      0.0468       0.7399       0.4386 
N1       N      0.5468       0.2399       0.9386 
N1       N      0.5468       0.7601       0.5614 
N1       N      0.0468       0.2601       0.0614 
N1       N      0.9532       0.2399       0.0614 
N1       N      0.4532       0.7399       0.5614 
N1       N      0.5468       0.7399       0.0614 
N1       N      0.0468       0.2399       0.5614 
N1       N      0.9532       0.2601       0.5614 
N1       N      0.4532       0.7601       0.0614 
N1       N      0.4532       0.2399       0.4386 
N1       N      0.9532       0.7399       0.9386 
N1       N      0.0468       0.7601       0.9386 
N1       N      0.5468       0.2601       0.4386 
N2       N      0.3001       0.6551       0.4977 
N2       N      0.8001       0.1551       0.9977 
N2       N      0.1999       0.3449       0.9977 
N2       N      0.6999       0.8449       0.4977 
N2       N      0.6999       0.1551       0.0023 
N2       N      0.1999       0.6551       0.5023 
N2       N      0.8001       0.8449       0.5023 
N2       N      0.3001       0.3449       0.0023 
N2       N      0.6999       0.3449       0.5023 
N2       N      0.1999       0.8449       0.0023 
N2       N      0.8001       0.6551       0.0023 
N2       N      0.3001       0.1551       0.5023 
N2       N      0.3001       0.8449       0.9977 
N2       N      0.8001       0.3449       0.4977 
N2       N      0.1999       0.1551       0.4977 
N2       N      0.6999       0.6551       0.9977 
O1       O      0.4499       0.2138       0.5789 
O1       O      0.9499       0.7138       0.0789 
O1       O      0.0501       0.7862       0.0789 
O1       O      0.5501       0.2862       0.5789 
O1       O      0.5501       0.7138       0.9211 
O1       O      0.0501       0.2138       0.4211 
O1       O      0.9499       0.2862       0.4211 
O1       O      0.4499       0.7862       0.9211 
O1       O      0.5501       0.7862       0.4211 
O1       O      0.0501       0.2862       0.9211 
O1       O      0.9499       0.2138       0.9211 
O1       O      0.4499       0.7138       0.4211 
O1       O      0.4499       0.2862       0.0789 
O1       O      0.9499       0.7862       0.5789 
O1       O      0.0501       0.7138       0.5789 
O1       O      0.5501       0.2138       0.0789 
O2       O      0.3138       0.2945       0.5294 
O2       O      0.8138       0.7945       0.0294 
O2       O      0.1862       0.7055       0.0294 
O2       O      0.6862       0.2055       0.5294 
O2       O      0.6862       0.7945       0.9706 
O2       O      0.1862       0.2945       0.4706 
O2       O      0.8138       0.2055       0.4706 
O2       O      0.3138       0.7055       0.9706 
O2       O      0.6862       0.7055       0.4706 
O2       O      0.1862       0.2055       0.9706 
O2       O      0.8138       0.2945       0.9706 
O2       O      0.3138       0.7945       0.4706 
O2       O      0.3138       0.2055       0.0294 
O2       O      0.8138       0.7055       0.5294 
O2       O      0.1862       0.7945       0.5294 
O2       O      0.6862       0.2945       0.0294 
Zn1      Zn     0.3795       0.2238       0.507  
Zn1      Zn     0.8795       0.7238       0.007  
Zn1      Zn     0.1205       0.7762       0.007  
Zn1      Zn     0.6205       0.2762       0.507  
Zn1      Zn     0.6205       0.7238       0.993  
Zn1      Zn     0.1205       0.2238       0.493  
Zn1      Zn     0.8795       0.2762       0.493  
Zn1      Zn     0.3795       0.7762       0.993  
Zn1      Zn     0.6205       0.7762       0.493  
Zn1      Zn     0.1205       0.2762       0.993  
Zn1      Zn     0.8795       0.2238       0.993  
Zn1      Zn     0.3795       0.7238       0.493  
Zn1      Zn     0.3795       0.2762       0.007  
Zn1      Zn     0.8795       0.7762       0.507  
Zn1      Zn     0.1205       0.7238       0.507  
Zn1      Zn     0.6205       0.2238       0.007  


