data_MgMOF-74-extended-VASP

_audit_creation_method VASP-PBE
_audit_creation_date 2012-8-23
_audit_author_name 'David Dubbeldam'

_cell_length_a    21.897
_cell_length_b    21.897
_cell_length_c    6.938
_cell_angle_alpha 90
_cell_angle_beta  90
_cell_angle_gamma 120
_cell_volume      2880.94

_symmetry_cell_setting          trigonal
_symmetry_space_group_name_Hall 'P 32 2"'
_symmetry_space_group_name_H-M  'P 32 2 1'
_symmetry_Int_Tables_number     154

loop_
_symmetry_equiv_pos_as_xyz
 'x,y,z'
 '-y,x-y,z+2/3'
 '-x+y,-x,z+1/3'
 'y,x,-z'
 'x-y,-y,-z+1/3'
 '-x,-x+y,-z+2/3'

loop_
_atom_site_label
_atom_site_type_symbol
_atom_site_fract_x
_atom_site_fract_y
_atom_site_fract_z
Mg1      Mg     0.6191       0.28243      0.15299 
O1       O      0.64298      0.35824      0.92349 
O2       O      0.586        0.20571      0.35465 
O3       O      0.65205      0.24044      0.94466 
C1       C      0.61304      0.3923       0.86191 
C2       C      0.56851      0.40497     -0.00139 
C2       C      0.49009      0.45397      0.04004 
C3       C      0.61768      0.1759       0.86146 
C4       C      0.53485      0.44068      0.92736 
C4       C      0.56966      0.04934      0.89939 
C4       C      0.60431      0.11697      0.97471 
H1       H      0.54584      0.45873      0.77831 
H1       H      0.56191      0.00535      0.99035 
H1       H      0.62304      0.12641      0.12336 


