data_MOF-74-VASP

_audit_creation_method VASP
_audit_creation_date 2012-22-8
_audit_author_name 'David Dubbeldam'

_cell_length_a    26.136
_cell_length_b    26.136
_cell_length_c    6.942
_cell_angle_alpha 90
_cell_angle_beta  90
_cell_angle_gamma 120

_symmetry_cell_setting          trigonal
_symmetry_space_group_name_Hall '-R 3'
_symmetry_space_group_name_H-M  'R -3'
_symmetry_Int_Tables_number     148

loop_
_symmetry_equiv_pos_as_xyz
 'x,y,z'
 '-y,x-y,z'
 '-x+y,-x,z'
 '-x,-y,-z'
 'y,-x+y,-z'
 'x-y,x,-z'
 'x+2/3,y+1/3,z+1/3'
 '-y+2/3,x-y+1/3,z+1/3'
 '-x+y+2/3,-x+1/3,z+1/3'
 '-x+2/3,-y+1/3,-z+1/3'
 'y+2/3,-x+y+1/3,-z+1/3'
 'x-y+2/3,x+1/3,-z+1/3'
 'x+1/3,y+2/3,z+2/3'
 '-y+1/3,x-y+2/3,z+2/3'
 '-x+y+1/3,-x+2/3,z+2/3'
 '-x+1/3,-y+2/3,-z+2/3'
 'y+1/3,-x+y+2/3,-z+2/3'
 'x-y+1/3,x+2/3,-z+2/3'

loop_
_atom_site_label
_atom_site_type_symbol
_atom_site_fract_x
_atom_site_fract_y
_atom_site_fract_z
Mg1      Mg    0.63990      0.68573      0.46836 
O1       O     0.96721      0.29743      0.36040 
O2       O     0.92780      0.23034      0.59466 
O3       O     0.25334      0.93973      0.67281 
C1       C     0.92683      0.24635      0.42241 
C2       C     0.87927      0.20718      0.28663 
C3       C     0.21197      0.88869      0.75473 
C4       C     0.16537      0.84702      0.64147 
H1       H     0.16364      0.85728      0.49031 


