data_MIL-140D-DFT

_audit_creation_method RASPA-1.0
_audit_creation_date 2012-8-31
_audit_author_name ''

_cell_length_a    34.8613
_cell_length_b    17.4795
_cell_length_c    7.8598
_cell_angle_alpha 90
_cell_angle_beta  90.27
_cell_angle_gamma 90
_cell_volume      4789.38

_symmetry_cell_setting          monoclinic
_symmetry_space_group_name_Hall 'C -2yc'
_symmetry_space_group_name_H-M  'C 1 c 1'
_symmetry_Int_Tables_number     9

loop_
_symmetry_equiv_pos_as_xyz
 'x,y,z'
 'x,-y,z+1/2'
 'x+1/2,y+1/2,z'
 'x+1/2,-y+1/2,z+1/2'

loop_
_atom_site_label
_atom_site_type_symbol
_atom_site_fract_x
_atom_site_fract_y
_atom_site_fract_z
H1       H      0.3096       0.7408       0.8081  
C2       C      0.3181       0.7819       0.7096  
C3       C      0.2944       0.7903       0.5658  
C4       C      0.3044       0.8422       0.4362  
H5       H      0.2854       0.8481       0.3254  
C6       C      0.3965       0.9251       0.6135  
O7       O      0.4138       0.9252       0.7566  
C8       C      0.3513       0.8255       0.7255  
C9       C      0.3377       0.8848       0.4517  
C10      C      0.3613       0.8771       0.5966  
H11      H      0.3699       0.8204       0.8378  
Cl12     Cl     0.34738      0.94725      0.2841  
N13      N      0.261        0.7444       0.5642  
O14      O      0.4065       0.9643       0.4826  
H15      H      0.1913       0.757        0.1899  
C16      C      0.1827       0.716        0.2884  
C17      C      0.2064       0.7072       0.432   
C18      C      0.1964       0.6555       0.5617  
H19      H      0.2154       0.6493       0.6722  
C20      C      0.1036       0.5744       0.3861  
O21      O      0.0862       0.5748       0.2434  
C22      C      0.1492       0.673        0.2731  
C23      C      0.1628       0.6135       0.5468  
C24      C      0.1391       0.6216       0.4023  
H25      H      0.1305       0.6784       0.1612  
Cl26     Cl     0.15302      0.55119      0.71454 
N27      N      0.2399       0.7529       0.4334  
O28      O      0.0936       0.5354       0.5171  
Zr29     Zr     0.0391       0.4934       0.6209  
O30      O      0.977        0.5028       0.6302  
O31      O      0.023        0.4971       0.3697  
Zr32     Zr     0.9609       0.5065       0.3791  
O33      O      0.4701       0.8814       0.404   
C34      C      0.5235       0.7157       0.5565  
C35      C      0.5222       0.6365       0.5545  
H36      H      0.5455       0.6019       0.6086  
C37      C      0.5388       0.2781       0.5835  
C38      C      0.5406       0.3576       0.583   
N39      N      0.5148       0.481        0.5225  
H40      H      0.5621       0.2437       0.6379  
H41      H      0.5654       0.3882       0.6364  
O42      O      0.4771       0.1255       0.4254  
C43      C      0.4955       0.8441       0.4875  
C44      C      0.4934       0.759        0.486   
C45      C      0.4614       0.7218       0.4157  
C46      C      0.4596       0.6423       0.4159  
C47      C      0.4901       0.5992       0.4836  
N48      N      0.4855       0.5189       0.4762  
H49      H      0.438        0.7561       0.3614  
H50      H      0.4349       0.6116       0.3624  
O51      O      0.523        0.8744       0.5741  
Cl52     Cl     0.56424      0.75573      0.65073 
O53      O      0.53         0.1185       0.5954  
C54      C      0.5046       0.1558       0.5119  
C55      C      0.5068       0.2409       0.5132  
C56      C      0.5102       0.4007       0.5151  
Cl57     Cl     0.43592      0.24435      0.3486  
H58      H      0.4548       0.3981       0.3902  
C59      C      0.4767       0.2843       0.4426  
C60      C      0.4781       0.3635       0.4443  


