data_MIL-140B-DFT

_audit_creation_method RASPA-1.0
_audit_creation_date 2012-8-31
_audit_author_name ''

_cell_length_a    28.1582
_cell_length_b    13.4675
_cell_length_c    7.889
_cell_angle_alpha 90
_cell_angle_beta  93.43
_cell_angle_gamma 90
_cell_volume      2986.31

_symmetry_cell_setting          monoclinic
_symmetry_space_group_name_Hall 'C -2yc'
_symmetry_space_group_name_H-M  'C 1 c 1'
_symmetry_Int_Tables_number     9

loop_
_symmetry_equiv_pos_as_xyz
 'x,y,z'
 'x,-y,z+1/2'
 'x+1/2,y+1/2,z'
 'x+1/2,-y+1/2,z+1/2'

loop_
_atom_site_label
_atom_site_type_symbol
_atom_site_fract_x
_atom_site_fract_y
_atom_site_fract_z
C24      C      0.7394       0.2352       0.577  
C23      C      0.6962       0.1817       0.5648 
C22      C      0.7379       0.2374       0.2642 
C21      C      0.6958       0.1851       0.2564 
C20      C      0.6747       0.1568       0.4081 
C19      C      0.6298       0.0977       0.3994 
C18      C      0.804        0.3175       0.4354 
C17      C      0.7624       0.2616       0.736  
C16      C      0.8045       0.3141       0.7438 
C15      C      0.8255       0.3425       0.592  
C14      C      0.8703       0.4021       0.6006 
C13      C      0.7609       0.2639       0.4232 
C12      C      0.4433       0.4551       0.3895 
C11      C      0.4486       0.3539       0.4043 
C10      C      0.5252       0.3751       0.5588 
C9       C      0.5209       0.4794       0.5433 
C8       C      0.5568       0.545        0.6103 
C7       C      0.5515       0.6462       0.5954 
C6       C      0.51         0.6871       0.5106 
C5       C      0.5044       0.7971       0.5036 
C4       C      0.4957       0.2029       0.4962 
C3       C      0.4901       0.3129       0.4892 
C2       C      0.4792       0.5206       0.4567 
C1       C      0.4749       0.6249       0.4411 
H12      H      0.7459       0.2395       0.8535 
H11      H      0.6794       0.1586       0.6804 
H10      H      0.7544       0.2596       0.1467 
H9       H      0.6779       0.1639       0.1346 
H8       H      0.8208       0.3407       0.3197 
H7       H      0.8224       0.3354       0.8656 
H6       H      0.443        0.6572       0.3754 
H5       H      0.4113       0.4866       0.3234 
H4       H      0.4214       0.303        0.35   
H3       H      0.5571       0.3427       0.6245 
H2       H      0.5788       0.697        0.6495 
H1       H      0.5889       0.5134       0.6763 
O10      O      0.6124       0.0749       0.5406 
O9       O      0.6126       0.0718       0.2529 
O8       O      0.8876       0.425        0.4594 
O7       O      0.8875       0.4282       0.747  
O6       O      0.4652       0.1533       0.4022 
O5       O      0.4705       0.8353       0.4103 
O4       O      0.5296       0.1647       0.5895 
O3       O      0.5349       0.8468       0.5975 
O2       O      0.0291       0.4933       0.3754 
O1       O      0.9709       0.4933       0.1244 
Zr2      Zr     0.0486       0.4962       0.1297 
Zr1      Zr     0.9514       0.4961       0.3702 


