data_MOF-205

_audit_creation_method RASPA-1.0
_audit_creation_date 2012-1-5
_audit_author_name 'Ozgur Yazaydin'

_cell_length_a    30.353
_cell_length_b    30.353
_cell_length_c    30.353
_cell_angle_alpha 90
_cell_angle_beta  90
_cell_angle_gamma 90
_cell_volume      27964.4

_symmetry_cell_setting          triclinic
_symmetry_space_group_name_Hall 'P 1'
_symmetry_space_group_name_H-M  'P 1'
_symmetry_Int_Tables_number     1

_symmetry_equiv_pos_as_xyz 'x,y,z'

loop_
_atom_site_label
_atom_site_type_symbol
_atom_site_fract_x
_atom_site_fract_y
_atom_site_fract_z
_atom_site_charge
O1       O      0.55094      0.91182      0.22472      0
C1       C      0.61051      0.84098      0.23293      0
H1       H      0.5831       0.8349       0.2206       0
C2       C      0.64162      0.80846      0.23315      0
H2       H      0.635        0.7807       0.222        0
O2       O      0.44906      0.08818      0.22472      0
C3       C      0.38949      0.15902      0.23293      0
H3       H      0.4169       0.1651       0.2206       0
C4       C      0.35838      0.19154      0.23315      0
H4       H      0.365        0.2193       0.222        0
O3       O      0.44906      0.91182      0.77528      0
C5       C      0.38949      0.84098      0.76707      0
H5       H      0.4169       0.8349       0.7794       0
C6       C      0.35838      0.80846      0.76685      0
H6       H      0.365        0.7807       0.778        0
O4       O      0.55094      0.08818      0.77528      0
C7       C      0.61051      0.15902      0.76707      0
H7       H      0.5831       0.1651       0.7794       0
C8       C      0.64162      0.19154      0.76685      0
H8       H      0.635        0.2193       0.778        0
O5       O      0.22472      0.55094      0.91182      0
C9       C      0.23293      0.61051      0.84098      0
H9       H      0.2206       0.5831       0.8349       0
C10      C      0.23315      0.64162      0.80846      0
H10      H      0.222        0.635        0.7807       0
O6       O      0.22472      0.44906      0.08818      0
C11      C      0.23293      0.38949      0.15902      0
H11      H      0.2206       0.4169       0.1651       0
C12      C      0.23315      0.35838      0.19154      0
H12      H      0.222        0.365        0.2193       0
O7       O      0.77528      0.44906      0.91182      0
C13      C      0.76707      0.38949      0.84098      0
H13      H      0.7794       0.4169       0.8349       0
C14      C      0.76685      0.35838      0.80846      0
H14      H      0.778        0.365        0.7807       0
O8       O      0.77528      0.55094      0.08818      0
C15      C      0.76707      0.61051      0.15902      0
H15      H      0.7794       0.5831       0.1651       0
C16      C      0.76685      0.64162      0.19154      0
H16      H      0.778        0.635        0.2193       0
O9       O      0.91182      0.22472      0.55094      0
C17      C      0.84098      0.23293      0.61051      0
H17      H      0.8349       0.2206       0.5831       0
C18      C      0.80846      0.23315      0.64162      0
H18      H      0.7807       0.222        0.635        0
O10      O      0.08818      0.22472      0.44906      0
C19      C      0.15902      0.23293      0.38949      0
H19      H      0.1651       0.2206       0.4169       0
C20      C      0.19154      0.23315      0.35838      0
H20      H      0.2193       0.222        0.365        0
O11      O      0.91182      0.77528      0.44906      0
C21      C      0.84098      0.76707      0.38949      0
H21      H      0.8349       0.7794       0.4169       0
C22      C      0.80846      0.76685      0.35838      0
H22      H      0.7807       0.778        0.365        0
O12      O      0.08818      0.77528      0.55094      0
C23      C      0.15902      0.76707      0.61051      0
H23      H      0.1651       0.7794       0.5831       0
C24      C      0.19154      0.76685      0.64162      0
H24      H      0.2193       0.778        0.635        0
O13      O      0.41182      0.05094      0.27528      0
C25      C      0.34098      0.11051      0.26707      0
H25      H      0.3349       0.0831       0.2794       0
C26      C      0.30846      0.14162      0.26685      0
H26      H      0.2807       0.135        0.278        0
O14      O      0.58818      0.94906      0.27528      0
C27      C      0.65902      0.88949      0.26707      0
H27      H      0.6651       0.9169       0.2794       0
C28      C      0.69154      0.85838      0.26685      0
H28      H      0.7193       0.865        0.278        0
O15      O      0.41182      0.94906      0.72472      0
C29      C      0.34098      0.88949      0.73293      0
H29      H      0.3349       0.9169       0.7206       0
C30      C      0.30846      0.85838      0.73315      0
H30      H      0.2807       0.865        0.722        0
O16      O      0.58818      0.05094      0.72472      0
C31      C      0.65902      0.11051      0.73293      0
H31      H      0.6651       0.0831       0.7206       0
C32      C      0.69154      0.14162      0.73315      0
H32      H      0.7193       0.135        0.722        0
O17      O      0.05094      0.72472      0.58818      0
C33      C      0.11051      0.73293      0.65902      0
H33      H      0.0831       0.7206       0.6651       0
C34      C      0.14162      0.73315      0.69154      0
H34      H      0.135        0.722        0.7193       0
O18      O      0.94906      0.72472      0.41182      0
C35      C      0.88949      0.73293      0.34098      0
H35      H      0.9169       0.7206       0.3349       0
C36      C      0.85838      0.73315      0.30846      0
H36      H      0.865        0.722        0.2807       0
O19      O      0.94906      0.27528      0.58818      0
C37      C      0.88949      0.26707      0.65902      0
H37      H      0.9169       0.2794       0.6651       0
C38      C      0.85838      0.26685      0.69154      0
H38      H      0.865        0.278        0.7193       0
O20      O      0.05094      0.27528      0.41182      0
C39      C      0.11051      0.26707      0.34098      0
H39      H      0.0831       0.2794       0.3349       0
C40      C      0.14162      0.26685      0.30846      0
H40      H      0.135        0.278        0.2807       0
O21      O      0.72472      0.41182      0.94906      0
C41      C      0.73293      0.34098      0.88949      0
H41      H      0.7206       0.3349       0.9169       0
C42      C      0.73315      0.30846      0.85838      0
H42      H      0.722        0.2807       0.865        0
O22      O      0.72472      0.58818      0.05094      0
C43      C      0.73293      0.65902      0.11051      0
H43      H      0.7206       0.6651       0.0831       0
C44      C      0.73315      0.69154      0.14162      0
H44      H      0.722        0.7193       0.135        0
O23      O      0.27528      0.41182      0.05094      0
C45      C      0.26707      0.34098      0.11051      0
H45      H      0.2794       0.3349       0.0831       0
C46      C      0.26685      0.30846      0.14162      0
H46      H      0.278        0.2807       0.135        0
O24      O      0.27528      0.58818      0.94906      0
C47      C      0.26707      0.65902      0.88949      0
H47      H      0.2794       0.6651       0.9169       0
C48      C      0.26685      0.69154      0.85838      0
H48      H      0.278        0.7193       0.865        0
O25      O      0.44906      0.08818      0.77528      0
C49      C      0.38949      0.15902      0.76707      0
H49      H      0.4169       0.1651       0.7794       0
C50      C      0.35838      0.19154      0.76685      0
H50      H      0.365        0.2193       0.778        0
O26      O      0.55094      0.91182      0.77528      0
C51      C      0.61051      0.84098      0.76707      0
H51      H      0.5831       0.8349       0.7794       0
C52      C      0.64162      0.80846      0.76685      0
H52      H      0.635        0.7807       0.778        0
O27      O      0.55094      0.08818      0.22472      0
C53      C      0.61051      0.15902      0.23293      0
H53      H      0.5831       0.1651       0.2206       0
C54      C      0.64162      0.19154      0.23315      0
H54      H      0.635        0.2193       0.222        0
O28      O      0.44906      0.91182      0.22472      0
C55      C      0.38949      0.84098      0.23293      0
H55      H      0.4169       0.8349       0.2206       0
C56      C      0.35838      0.80846      0.23315      0
H56      H      0.365        0.7807       0.222        0
O29      O      0.77528      0.44906      0.08818      0
C57      C      0.76707      0.38949      0.15902      0
H57      H      0.7794       0.4169       0.1651       0
C58      C      0.76685      0.35838      0.19154      0
H58      H      0.778        0.365        0.2193       0
O30      O      0.77528      0.55094      0.91182      0
C59      C      0.76707      0.61051      0.84098      0
H59      H      0.7794       0.5831       0.8349       0
C60      C      0.76685      0.64162      0.80846      0
H60      H      0.778        0.635        0.7807       0
O31      O      0.22472      0.55094      0.08818      0
C61      C      0.23293      0.61051      0.15902      0
H61      H      0.2206       0.5831       0.1651       0
C62      C      0.23315      0.64162      0.19154      0
H62      H      0.222        0.635        0.2193       0
O32      O      0.22472      0.44906      0.91182      0
C63      C      0.23293      0.38949      0.84098      0
H63      H      0.2206       0.4169       0.8349       0
C64      C      0.23315      0.35838      0.80846      0
H64      H      0.222        0.365        0.7807       0
O33      O      0.08818      0.77528      0.44906      0
C65      C      0.15902      0.76707      0.38949      0
H65      H      0.1651       0.7794       0.4169       0
C66      C      0.19154      0.76685      0.35838      0
H66      H      0.2193       0.778        0.365        0
O34      O      0.91182      0.77528      0.55094      0
C67      C      0.84098      0.76707      0.61051      0
H67      H      0.8349       0.7794       0.5831       0
C68      C      0.80846      0.76685      0.64162      0
H68      H      0.7807       0.778        0.635        0
O35      O      0.08818      0.22472      0.55094      0
C69      C      0.15902      0.23293      0.61051      0
H69      H      0.1651       0.2206       0.5831       0
C70      C      0.19154      0.23315      0.64162      0
H70      H      0.2193       0.222        0.635        0
O36      O      0.91182      0.22472      0.44906      0
C71      C      0.84098      0.23293      0.38949      0
H71      H      0.8349       0.2206       0.4169       0
C72      C      0.80846      0.23315      0.35838      0
H72      H      0.7807       0.222        0.365        0
O37      O      0.58818      0.94906      0.72472      0
C73      C      0.65902      0.88949      0.73293      0
H73      H      0.6651       0.9169       0.7206       0
C74      C      0.69154      0.85838      0.73315      0
H74      H      0.7193       0.865        0.722        0
O38      O      0.41182      0.05094      0.72472      0
C75      C      0.34098      0.11051      0.73293      0
H75      H      0.3349       0.0831       0.7206       0
C76      C      0.30846      0.14162      0.73315      0
H76      H      0.2807       0.135        0.722        0
O39      O      0.58818      0.05094      0.27528      0
C77      C      0.65902      0.11051      0.26707      0
H77      H      0.6651       0.0831       0.2794       0
C78      C      0.69154      0.14162      0.26685      0
H78      H      0.7193       0.135        0.278        0
O40      O      0.41182      0.94906      0.27528      0
C79      C      0.34098      0.88949      0.26707      0
H79      H      0.3349       0.9169       0.2794       0
C80      C      0.30846      0.85838      0.26685      0
H80      H      0.2807       0.865        0.278        0
O41      O      0.94906      0.27528      0.41182      0
C81      C      0.88949      0.26707      0.34098      0
H81      H      0.9169       0.2794       0.3349       0
C82      C      0.85838      0.26685      0.30846      0
H82      H      0.865        0.278        0.2807       0
O42      O      0.05094      0.27528      0.58818      0
C83      C      0.11051      0.26707      0.65902      0
H83      H      0.0831       0.2794       0.6651       0
C84      C      0.14162      0.26685      0.69154      0
H84      H      0.135        0.278        0.7193       0
O43      O      0.05094      0.72472      0.41182      0
C85      C      0.11051      0.73293      0.34098      0
H85      H      0.0831       0.7206       0.3349       0
C86      C      0.14162      0.73315      0.30846      0
H86      H      0.135        0.722        0.2807       0
O44      O      0.94906      0.72472      0.58818      0
C87      C      0.88949      0.73293      0.65902      0
H87      H      0.9169       0.7206       0.6651       0
C88      C      0.85838      0.73315      0.69154      0
H88      H      0.865        0.722        0.7193       0
O45      O      0.27528      0.58818      0.05094      0
C89      C      0.26707      0.65902      0.11051      0
H89      H      0.2794       0.6651       0.0831       0
C90      C      0.26685      0.69154      0.14162      0
H90      H      0.278        0.7193       0.135        0
O46      O      0.27528      0.41182      0.94906      0
C91      C      0.26707      0.34098      0.88949      0
H91      H      0.2794       0.3349       0.9169       0
C92      C      0.26685      0.30846      0.85838      0
H92      H      0.278        0.2807       0.865        0
O47      O      0.72472      0.58818      0.94906      0
C93      C      0.73293      0.65902      0.88949      0
H93      H      0.7206       0.6651       0.9169       0
C94      C      0.73315      0.69154      0.85838      0
H94      H      0.722        0.7193       0.865        0
O48      O      0.72472      0.41182      0.05094      0
C95      C      0.73293      0.34098      0.11051      0
H95      H      0.7206       0.3349       0.0831       0
C96      C      0.73315      0.30846      0.14162      0
H96      H      0.722        0.2807       0.135        0
Zn1      Zn     0.5          0.94807      0.21258      0
O49      O      0.5          0.96297      0.15039      0
C97      C      0.5          0.0502       0.0633       0
H97      H      0.5          0.0738       0.0828       0
C98      C      0.5          0.0582       0.01774      0
H98      H      0.5          0.0865       0.0061       0
Zn2      Zn     0.5          0.05194      0.21258      0
O50      O      0.5          0.03703      0.15039      0
C99      C      0.5          0.97887      0.0086       0
C100     C      0.5          0.9753       0.0535       0
H99      H      0.5          0.9462       0.063        0
Zn3      Zn     0.5          0.94807      0.78742      0
O51      O      0.5          0.96297      0.84961      0
C101     C      0.5          0.02113      0.9914       0
C102     C      0.5          0.0247       0.9465       0
H100     H      0.5          0.0538       0.937        0
Zn4      Zn     0.5          0.05194      0.78742      0
O52      O      0.5          0.03703      0.84961      0
C103     C      0.5          0.9498       0.9367       0
H101     H      0.5          0.9262       0.9172       0
C104     C      0.5          0.9418       0.98226      0
H102     H      0.5          0.9135       0.9939       0
Zn5      Zn     0.21258      0.5          0.94807      0
O53      O      0.15039      0.5          0.96297      0
C105     C      0.0086       0.5          0.02113      0
C106     C      0.0535       0.5          0.0247       0
H103     H      0.063        0.5          0.0538       0
Zn6      Zn     0.21258      0.5          0.05194      0
O54      O      0.15039      0.5          0.03703      0
C107     C      0.0633       0.5          0.9498       0
H104     H      0.0828       0.5          0.9262       0
C108     C      0.01774      0.5          0.9418       0
H105     H      0.0061       0.5          0.9135       0
Zn7      Zn     0.78742      0.5          0.94807      0
O55      O      0.84961      0.5          0.96297      0
C109     C      0.9367       0.5          0.0502       0
H106     H      0.9172       0.5          0.0738       0
C110     C      0.98226      0.5          0.0582       0
H107     H      0.9939       0.5          0.0865       0
Zn8      Zn     0.78742      0.5          0.05194      0
O56      O      0.84961      0.5          0.03703      0
C111     C      0.9914       0.5          0.97887      0
C112     C      0.9465       0.5          0.9753       0
H108     H      0.937        0.5          0.9462       0
Zn9      Zn     0.94807      0.21258      0.5          0
O57      O      0.96297      0.15039      0.5          0
C113     C      0.02113      0.0086       0.5          0
C114     C      0.0247       0.0535       0.5          0
H109     H      0.0538       0.063        0.5          0
Zn10     Zn     0.05194      0.21258      0.5          0
O58      O      0.03703      0.15039      0.5          0
C115     C      0.9498       0.0633       0.5          0
H110     H      0.9262       0.0828       0.5          0
C116     C      0.9418       0.01774      0.5          0
H111     H      0.9135       0.0061       0.5          0
Zn11     Zn     0.94807      0.78742      0.5          0
O59      O      0.96297      0.84961      0.5          0
C117     C      0.0502       0.9367       0.5          0
H112     H      0.0738       0.9172       0.5          0
C118     C      0.0582       0.98226      0.5          0
H113     H      0.0865       0.9939       0.5          0
Zn12     Zn     0.05194      0.78742      0.5          0
O60      O      0.03703      0.84961      0.5          0
C119     C      0.97887      0.9914       0.5          0
C120     C      0.9753       0.9465       0.5          0
H114     H      0.9462       0.937        0.5          0
Zn13     Zn     0.44806      0            0.28742      0
O61      O      0.46297      0            0.34961      0
C121     C      0.5502       0            0.4367       0
H115     H      0.5738       0            0.4172       0
C122     C      0.5582       0            0.48226      0
H116     H      0.5865       0            0.4939       0
Zn14     Zn     0.55194      0            0.28742      0
O62      O      0.53703      0            0.34961      0
C123     C      0.47887      0            0.4914       0
C124     C      0.4753       0            0.4465       0
H117     H      0.4462       0            0.437        0
Zn15     Zn     0.44806      0            0.71258      0
O63      O      0.46297      0            0.65039      0
C125     C      0.52113      0            0.5086       0
C126     C      0.5247       0            0.5535       0
H118     H      0.5538       0            0.563        0
Zn16     Zn     0.55194      0            0.71258      0
O64      O      0.53703      0            0.65039      0
C127     C      0.4498       0            0.5633       0
H119     H      0.4262       0            0.5828       0
C128     C      0.4418       0            0.51774      0
H120     H      0.4135       0            0.5061       0
Zn17     Zn     0            0.71258      0.55194      0
O65      O      0            0.65039      0.53703      0
C129     C      0            0.5086       0.47887      0
C130     C      0            0.5535       0.4753       0
H121     H      0            0.563        0.4462       0
Zn18     Zn     0            0.71258      0.44806      0
O66      O      0            0.65039      0.46297      0
C131     C      0            0.5633       0.5502       0
H122     H      0            0.5828       0.5738       0
C132     C      0            0.51774      0.5582       0
H123     H      0            0.5061       0.5865       0
Zn19     Zn     0            0.28742      0.55194      0
O67      O      0            0.34961      0.53703      0
C133     C      0            0.4367       0.4498       0
H124     H      0            0.4172       0.4262       0
C134     C      0            0.48226      0.4418       0
H125     H      0            0.4939       0.4135       0
Zn20     Zn     0            0.28742      0.44806      0
O68      O      0            0.34961      0.46297      0
C135     C      0            0.4914       0.52113      0
C136     C      0            0.4465       0.5247       0
H126     H      0            0.437        0.5538       0
Zn21     Zn     0.71258      0.44806      0            0
O69      O      0.65039      0.46297      0            0
C137     C      0.5633       0.5502       0            0
H127     H      0.5828       0.5738       0            0
C138     C      0.51774      0.5582       0            0
H128     H      0.5061       0.5865       0            0
Zn22     Zn     0.71258      0.55194      0            0
O70      O      0.65039      0.53703      0            0
C139     C      0.5086       0.47887      0            0
C140     C      0.5535       0.4753       0            0
H129     H      0.563        0.4462       0            0
Zn23     Zn     0.28742      0.44806      0            0
O71      O      0.34961      0.46297      0            0
C141     C      0.4914       0.52113      0            0
C142     C      0.4465       0.5247       0            0
H130     H      0.437        0.5538       0            0
Zn24     Zn     0.28742      0.55194      0            0
O72      O      0.34961      0.53703      0            0
C143     C      0.4367       0.4498       0            0
H131     H      0.4172       0.4262       0            0
C144     C      0.48226      0.4418       0            0
H132     H      0.4939       0.4135       0            0
O73      O      0.5          0            0.25         0
O74      O      0.5          0            0.75         0
O75      O      0.25         0.5          0            0
O76      O      0.75         0.5          0            0
O77      O      0            0.25         0.5          0
O78      O      0            0.75         0.5          0
C145     C      0.58289      0.91711      0.25         0
C146     C      0.61769      0.88231      0.25         0
C147     C      0.68284      0.81716      0.25         0
C148     C      0.71702      0.78298      0.25         0
C149     C      0.41711      0.08289      0.25         0
C150     C      0.38231      0.11769      0.25         0
C151     C      0.31716      0.18284      0.25         0
C152     C      0.28298      0.21702      0.25         0
C153     C      0.41711      0.91711      0.75         0
C154     C      0.38231      0.88231      0.75         0
C155     C      0.31716      0.81716      0.75         0
C156     C      0.28298      0.78298      0.75         0
C157     C      0.58289      0.08289      0.75         0
C158     C      0.61769      0.11769      0.75         0
C159     C      0.68284      0.18284      0.75         0
C160     C      0.71702      0.21702      0.75         0
C161     C      0.25         0.58289      0.91711      0
C162     C      0.25         0.61769      0.88231      0
C163     C      0.25         0.68284      0.81716      0
C164     C      0.25         0.71702      0.78298      0
C165     C      0.25         0.41711      0.08289      0
C166     C      0.25         0.38231      0.11769      0
C167     C      0.25         0.31716      0.18284      0
C168     C      0.25         0.28298      0.21702      0
C169     C      0.75         0.41711      0.91711      0
C170     C      0.75         0.38231      0.88231      0
C171     C      0.75         0.31716      0.81716      0
C172     C      0.75         0.28298      0.78298      0
C173     C      0.75         0.58289      0.08289      0
C174     C      0.75         0.61769      0.11769      0
C175     C      0.75         0.68284      0.18284      0
C176     C      0.75         0.71702      0.21702      0
C177     C      0.91711      0.25         0.58289      0
C178     C      0.88231      0.25         0.61769      0
C179     C      0.81716      0.25         0.68284      0
C180     C      0.78298      0.25         0.71702      0
C181     C      0.08289      0.25         0.41711      0
C182     C      0.11769      0.25         0.38231      0
C183     C      0.18284      0.25         0.31716      0
C184     C      0.21702      0.25         0.28298      0
C185     C      0.91711      0.75         0.41711      0
C186     C      0.88231      0.75         0.38231      0
C187     C      0.81716      0.75         0.31716      0
C188     C      0.78298      0.75         0.28298      0
C189     C      0.08289      0.75         0.58289      0
C190     C      0.11769      0.75         0.61769      0
C191     C      0.18284      0.75         0.68284      0
C192     C      0.21702      0.75         0.71702      0
C193     C      0.41711      0.08289      0.75         0
C194     C      0.38231      0.11769      0.75         0
C195     C      0.31716      0.18284      0.75         0
C196     C      0.28298      0.21702      0.75         0
C197     C      0.58289      0.91711      0.75         0
C198     C      0.61769      0.88231      0.75         0
C199     C      0.68284      0.81716      0.75         0
C200     C      0.71702      0.78298      0.75         0
C201     C      0.58289      0.08289      0.25         0
C202     C      0.61769      0.11769      0.25         0
C203     C      0.68284      0.18284      0.25         0
C204     C      0.71702      0.21702      0.25         0
C205     C      0.41711      0.91711      0.25         0
C206     C      0.38231      0.88231      0.25         0
C207     C      0.31716      0.81716      0.25         0
C208     C      0.28298      0.78298      0.25         0
C209     C      0.75         0.41711      0.08289      0
C210     C      0.75         0.38231      0.11769      0
C211     C      0.75         0.31716      0.18284      0
C212     C      0.75         0.28298      0.21702      0
C213     C      0.75         0.58289      0.91711      0
C214     C      0.75         0.61769      0.88231      0
C215     C      0.75         0.68284      0.81716      0
C216     C      0.75         0.71702      0.78298      0
C217     C      0.25         0.58289      0.08289      0
C218     C      0.25         0.61769      0.11769      0
C219     C      0.25         0.68284      0.18284      0
C220     C      0.25         0.71702      0.21702      0
C221     C      0.25         0.41711      0.91711      0
C222     C      0.25         0.38231      0.88231      0
C223     C      0.25         0.31716      0.81716      0
C224     C      0.25         0.28298      0.78298      0
C225     C      0.08289      0.75         0.41711      0
C226     C      0.11769      0.75         0.38231      0
C227     C      0.18284      0.75         0.31716      0
C228     C      0.21702      0.75         0.28298      0
C229     C      0.91711      0.75         0.58289      0
C230     C      0.88231      0.75         0.61769      0
C231     C      0.81716      0.75         0.68284      0
C232     C      0.78298      0.75         0.71702      0
C233     C      0.08289      0.25         0.58289      0
C234     C      0.11769      0.25         0.61769      0
C235     C      0.18284      0.25         0.68284      0
C236     C      0.21702      0.25         0.71702      0
C237     C      0.91711      0.25         0.41711      0
C238     C      0.88231      0.25         0.38231      0
C239     C      0.81716      0.25         0.31716      0
C240     C      0.78298      0.25         0.28298      0
C241     C      0.75         0.78211      0.28211      0
H133     H      0.75         0.8038       0.3038       0
C242     C      0.25         0.21789      0.28211      0
H134     H      0.25         0.1962       0.3038       0
C243     C      0.25         0.78211      0.71789      0
H135     H      0.25         0.8038       0.6962       0
C244     C      0.75         0.21789      0.71789      0
H136     H      0.75         0.1962       0.6962       0
C245     C      0.28211      0.75         0.78211      0
H137     H      0.3038       0.75         0.8038       0
C246     C      0.28211      0.25         0.21789      0
H138     H      0.3038       0.25         0.1962       0
C247     C      0.71789      0.25         0.78211      0
H139     H      0.6962       0.25         0.8038       0
C248     C      0.71789      0.75         0.21789      0
H140     H      0.6962       0.75         0.1962       0
C249     C      0.78211      0.28211      0.75         0
H141     H      0.8038       0.3038       0.75         0
C250     C      0.21789      0.28211      0.25         0
H142     H      0.1962       0.3038       0.25         0
C251     C      0.78211      0.71789      0.25         0
H143     H      0.8038       0.6962       0.25         0
C252     C      0.21789      0.71789      0.75         0
H144     H      0.1962       0.6962       0.75         0
C253     C      0.25         0.21789      0.71789      0
H145     H      0.25         0.1962       0.6962       0
C254     C      0.75         0.78211      0.71789      0
H146     H      0.75         0.8038       0.6962       0
C255     C      0.75         0.21789      0.28211      0
H147     H      0.75         0.1962       0.3038       0
C256     C      0.25         0.78211      0.28211      0
H148     H      0.25         0.8038       0.3038       0
C257     C      0.71789      0.25         0.21789      0
H149     H      0.6962       0.25         0.1962       0
C258     C      0.71789      0.75         0.78211      0
H150     H      0.6962       0.75         0.8038       0
C259     C      0.28211      0.75         0.21789      0
H151     H      0.3038       0.75         0.1962       0
C260     C      0.28211      0.25         0.78211      0
H152     H      0.3038       0.25         0.8038       0
C261     C      0.21789      0.71789      0.25         0
H153     H      0.1962       0.6962       0.25         0
C262     C      0.78211      0.71789      0.75         0
H154     H      0.8038       0.6962       0.75         0
C263     C      0.21789      0.28211      0.75         0
H155     H      0.1962       0.3038       0.75         0
C264     C      0.78211      0.28211      0.25         0
H156     H      0.8038       0.3038       0.25         0
C265     C      0.5          0            0.13094      0
C266     C      0.5          0            0.08235      0
C267     C      0.5          0            0.86906      0
C268     C      0.5          0            0.91765      0
C269     C      0.13094      0.5          0            0
C270     C      0.08235      0.5          0            0
C271     C      0.86906      0.5          0            0
C272     C      0.91765      0.5          0            0
C273     C      0            0.13094      0.5          0
C274     C      0            0.08235      0.5          0
C275     C      0            0.86906      0.5          0
C276     C      0            0.91765      0.5          0
C277     C      0.5          0            0.36906      0
C278     C      0.5          0            0.41765      0
C279     C      0.5          0            0.63094      0
C280     C      0.5          0            0.58235      0
C281     C      0            0.63094      0.5          0
C282     C      0            0.58235      0.5          0
C283     C      0            0.36906      0.5          0
C284     C      0            0.41765      0.5          0
C285     C      0.63094      0.5          0            0
C286     C      0.58235      0.5          0            0
C287     C      0.36906      0.5          0            0
C288     C      0.41765      0.5          0            0


