data_MOF-177

_audit_creation_method RASPA-1.0
_audit_creation_date 2011-6-19
_audit_author_name 'David Dubbeldam'

_cell_length_a    37.072
_cell_length_b    37.072
_cell_length_c    30.0333
_cell_angle_alpha 90
_cell_angle_beta  90
_cell_angle_gamma 120
_cell_volume      35745.9

_symmetry_cell_setting          trigonal
_symmetry_space_group_name_Hall 'P 3'
_symmetry_space_group_name_H-M  'P 3'
_symmetry_Int_Tables_number     143

loop_
_symmetry_equiv_pos_as_xyz
 'x,y,z'
 '-y,x-y,z'
 '-x+y,-x,z'

loop_
_atom_site_label
_atom_site_type_symbol
_atom_site_fract_x
_atom_site_fract_y
_atom_site_fract_z
_atom_site_charge
Zn1      Zn     0.156      0.296      0.1983     1.275 
Zn1      Zn     0.2246     0.3663     0.2602     1.275 
O2       O      0.3716     0.2388     0.8214    -0.6   
O2       O      0.3185     0.1796     0.8511    -0.6   
O2       O      0.5854     0.3323     0.227     -0.6   
O2       O      0.6151     0.3267     0.1653    -0.6   
O2       O      0.2603     0.3527     0.2243    -0.6   
O2       O      0.2114     0.3047     0.1815    -0.6   
O2       O      0.1186     0.2396     0.2121    -0.6   
O2       O      0.2429     0.4245     0.2464    -0.6   
C6       C      0.3884     0.28       0.0335     0     
C7       C      0.4249     0.2881     0.0536    -0.15  
C6       C      0.4349     0.302      0.098      0     
C7       C      0.4068     0.3092     0.1206    -0.15  
C6       C      0.3699     0.3012     0.1018     0     
C7       C      0.3607     0.2857     0.0589    -0.15  
C5       C      0.4734     0.3082     0.1185     0     
C4       C      0.4919     0.2874     0.107     -0.15  
C3       C      0.5276     0.2952     0.128     -0.15  
C2       C      0.5442     0.3197     0.1608     0.125 
C3       C      0.5272     0.3422     0.1703    -0.15  
C4       C      0.4917     0.3352     0.1493    -0.15  
C5       C      0.34       0.3092     0.1242     0     
C4       C      0.3477     0.3352     0.1565    -0.15  
C3       C      0.3183     0.3416     0.1799    -0.15  
C2       C      0.2822     0.3225     0.1705     0.125 
C3       C      0.2713     0.2985     0.1365    -0.15  
C4       C      0.3001     0.2921     0.1137    -0.15  
C5       C      0.3806     0.2659     0.9858     0     
C4       C      0.3404     0.2352     0.9745    -0.15  
C3       C      0.3985     0.2638     0.9112    -0.15  
C2       C      0.3599     0.2321     0.9004     0.125 
C4       C      0.4073     0.2754     0.9531    -0.15  
C1       C      0.3504     0.2168     0.854      0.475 
C1       C      0.5844     0.3247     0.1826     0.475 
C1       C      0.2531     0.3285     0.1928     0.475 
C4       C      0.041      0.1128     0.2858    -0.15  
C3       C      0.0634     0.1571     0.2858    -0.15  
C4       C      0.3066     0.554      0.2354    -0.15  
C3       C      0.285      0.5124     0.2356    -0.15  
C3       C      0.3324     0.2204     0.9291    -0.15  
Zn1      Zn     0.6219     0.3407     0.2779     1.275 
Zn1      Zn     0.14       0.296      0.3017     1.275 
Zn1      Zn     0.1417     0.3663     0.2398     1.275 
O2       O      0.3716     0.1328     0.6786    -0.6   
O2       O      0.3185     0.1389     0.6489    -0.6   
O2       O      0.6047     0.2385     0.3007    -0.6   
O2       O      0.5822     0.294      0.3102    -0.6   
O2       O      0.0924     0.3527     0.2757    -0.6   
O2       O      0.0933     0.3047     0.3185    -0.6   
O2       O      0.121      0.2396     0.2879    -0.6   
O2       O      0.1816     0.4245     0.2536    -0.6   
C6       C      0.3884     0.1084     0.4665     0     
C7       C      0.4249     0.1368     0.4464    -0.15  
C6       C      0.4349     0.1329     0.402      0     
C7       C      0.4068     0.0976     0.3794    -0.15  
C6       C      0.3699     0.0687     0.3982     0     
C7       C      0.3607     0.075      0.4411    -0.15  
C5       C      0.4734     0.1652     0.3815     0     
C4       C      0.4919     0.2045     0.393     -0.15  
C3       C      0.5276     0.2324     0.372     -0.15  
C2       C      0.5442     0.2245     0.3392     0.125 
C3       C      0.5272     0.185      0.3297    -0.15  
C4       C      0.4917     0.1565     0.3507    -0.15  
C5       C      0.34       0.0308     0.3758     0     
C4       C      0.3477     0.0125     0.3435    -0.15  
C3       C      0.0233     0.3416     0.3201    -0.15  
C2       C      0.0403     0.3225     0.3295     0.125 
C3       C      0.0272     0.2985     0.3635    -0.15  
C4       C      0.3001     0.008      0.3863    -0.15  
C5       C      0.3806     0.1147     0.5142     0     
C4       C      0.3404     0.1052     0.5255    -0.15  
C3       C      0.3985     0.1347     0.5888    -0.15  
C2       C      0.3599     0.1278     0.5996     0.125 
C4       C      0.4073     0.1319     0.5469    -0.15  
C1       C      0.3504     0.1336     0.646      0.475 
C1       C      0.5844     0.2597     0.3174     0.475 
C1       C      0.0754     0.3285     0.3072     0.475 
C4       C      0.0718     0.1128     0.2142    -0.15  
C3       C      0.0937     0.1571     0.2142    -0.15  
C4       C      0.2474     0.554      0.2646    -0.15  
C3       C      0.2274     0.5124     0.2644    -0.15  
C3       C      0.3324     0.112      0.5709    -0.15  
Zn1      Zn     0.3407     0.6219     0.7779     1.275 
Zn1      Zn     0.296      0.14       0.8017     1.275 
Zn1      Zn     0.3663     0.1417     0.7398     1.275 
O2       O      0.1328     0.3716     0.1786    -0.6   
O2       O      0.1389     0.3185     0.1489    -0.6   
O2       O      0.2385     0.6047     0.8007    -0.6   
O2       O      0.294      0.5822     0.8102    -0.6   
O2       O      0.3527     0.0924     0.7757    -0.6   
O2       O      0.3047     0.0933     0.8185    -0.6   
O2       O      0.2396     0.121      0.7879    -0.6   
O2       O      0.4245     0.1816     0.7536    -0.6   
C6       C      0.1084     0.3884     0.9665     0     
C7       C      0.1368     0.4249     0.9464    -0.15  
C6       C      0.1329     0.4349     0.902      0     
C7       C      0.0976     0.4068     0.8794    -0.15  
C6       C      0.0687     0.3699     0.8982     0     
C7       C      0.075      0.3607     0.9411    -0.15  
C5       C      0.1652     0.4734     0.8815     0     
C4       C      0.2045     0.4919     0.893     -0.15  
C3       C      0.2324     0.5276     0.872     -0.15  
C2       C      0.2245     0.5442     0.8392     0.125 
C3       C      0.185      0.5272     0.8297    -0.15  
C4       C      0.1565     0.4917     0.8507    -0.15  
C5       C      0.0308     0.34       0.8758     0     
C4       C      0.0125     0.3477     0.8435    -0.15  
C3       C      0.3416     0.0233     0.8201    -0.15  
C2       C      0.3225     0.0403     0.8295     0.125 
C3       C      0.2985     0.0272     0.8635    -0.15  
C4       C      0.008      0.3001     0.8863    -0.15  
C5       C      0.1147     0.3806     0.0142     0     
C4       C      0.1052     0.3404     0.0255    -0.15  
C3       C      0.1347     0.3985     0.0888    -0.15  
C2       C      0.1278     0.3599     0.0996     0.125 
C4       C      0.1319     0.4073     0.0469    -0.15  
C1       C      0.1336     0.3504     0.146      0.475 
C1       C      0.2597     0.5844     0.8174     0.475 
C1       C      0.3285     0.0754     0.8072     0.475 
C4       C      0.1128     0.0718     0.7142    -0.15  
C3       C      0.1571     0.0937     0.7142    -0.15  
C4       C      0.554      0.2474     0.7646    -0.15  
C3       C      0.5124     0.2274     0.7644    -0.15  
C3       C      0.112      0.3324     0.0709    -0.15  
Zn1      Zn     0.296      0.156      0.6983     1.275 
Zn1      Zn     0.3663     0.2246     0.7602     1.275 
O2       O      0.2388     0.3716     0.3214    -0.6   
O2       O      0.1796     0.3185     0.3511    -0.6   
O2       O      0.3323     0.5854     0.727     -0.6   
O2       O      0.3267     0.6151     0.6653    -0.6   
O2       O      0.3527     0.2603     0.7243    -0.6   
O2       O      0.3047     0.2114     0.6815    -0.6   
O2       O      0.2396     0.1186     0.7121    -0.6   
O2       O      0.4245     0.2429     0.7464    -0.6   
C6       C      0.28       0.3884     0.5335     0     
C7       C      0.2881     0.4249     0.5536    -0.15  
C6       C      0.302      0.4349     0.598      0     
C7       C      0.3092     0.4068     0.6206    -0.15  
C6       C      0.3012     0.3699     0.6018     0     
C7       C      0.2857     0.3607     0.5589    -0.15  
C5       C      0.3082     0.4734     0.6185     0     
C4       C      0.2874     0.4919     0.607     -0.15  
C3       C      0.2952     0.5276     0.628     -0.15  
C2       C      0.3197     0.5442     0.6608     0.125 
C3       C      0.3422     0.5272     0.6703    -0.15  
C4       C      0.3352     0.4917     0.6493    -0.15  
C5       C      0.3092     0.34       0.6242     0     
C4       C      0.3352     0.3477     0.6565    -0.15  
C3       C      0.3416     0.3183     0.6799    -0.15  
C2       C      0.3225     0.2822     0.6705     0.125 
C3       C      0.2985     0.2713     0.6365    -0.15  
C4       C      0.2921     0.3001     0.6137    -0.15  
C5       C      0.2659     0.3806     0.4858     0     
C4       C      0.2352     0.3404     0.4745    -0.15  
C3       C      0.2638     0.3985     0.4112    -0.15  
C2       C      0.2321     0.3599     0.4004     0.125 
C4       C      0.2754     0.4073     0.4531    -0.15  
C1       C      0.2168     0.3504     0.354      0.475 
C1       C      0.3247     0.5844     0.6826     0.475 
C1       C      0.3285     0.2531     0.6928     0.475 
C4       C      0.1128     0.041      0.7858    -0.15  
C3       C      0.1571     0.0634     0.7858    -0.15  
C4       C      0.554      0.3066     0.7354    -0.15  
C3       C      0.5124     0.285      0.7356    -0.15  
C3       C      0.2204     0.3324     0.4291    -0.15  
Zn1      Zn     0.66666    0.33333    0.1904     1.275 
Zn1      Zn     0.33333    0.66666    0.6904     1.275 
O1       O      0.16645    0.3329     0.25      -1.5   
C6       C      0.02165    0.0433     0.25       0     
C5       C      0.04535    0.0907     0.25       0     
C2       C      0.0888     0.1776     0.25       0.125 
C1       C      0.11045    0.2209     0.25       0.475 
C6       C      0.31195    0.6239     0.25       0     
C5       C      0.2878     0.5756     0.25       0     
C2       C      0.24505    0.4901     0.25       0.125 
C1       C      0.22155    0.4431     0.25       0.475 
O1       O      0.3329     0.16645    0.75      -1.5   
C6       C      0.0433     0.02165    0.75       0     
C5       C      0.0907     0.04535    0.75       0     
C2       C      0.1776     0.0888     0.75       0.125 
C1       C      0.2209     0.11045    0.75       0.475 
C6       C      0.6239     0.31195    0.75       0     
C5       C      0.5756     0.2878     0.75       0     
C2       C      0.4901     0.24505    0.75       0.125 
C1       C      0.4431     0.22155    0.75       0.475 
O1       O      0.66666    0.33333    0.25      -1.5   
O1       O      0.33333    0.66666    0.75      -1.5   
C7       C      0.0428     0.0214     0.25      -0.15  
C7       C      0.0214     0.0428     0.75      -0.15  
C7       C      0.2896     0.6448     0.25      -0.15  
C7       C      0.3552     0.6448     0.25      -0.15  
C7       C      0.6448     0.2896     0.75      -0.15  
C7       C      0.6448     0.3552     0.75      -0.15  
H3       H      0.44888    0.28366    0.0343     0.15  
H3       H      0.41401    0.32216    0.15593    0.15  
H3       H      0.32901    0.27755    0.04466    0.15  
H2       H      0.47808    0.26294    0.07955    0.15  
H1       H      0.54529    0.2791     0.11638    0.15  
H1       H      0.54205    0.36794    0.19634    0.15  
H2       H      0.47833    0.35541    0.1609     0.15  
H2       H      0.38103    0.3558     0.16864    0.15  
H1       H      0.32895    0.36526    0.20817    0.15  
H1       H      0.23756    0.28211    0.12467    0.15  
H2       H      0.28716    0.27026    0.08388    0.15  
H2       H      0.3148     0.22239    0.0008     0.15  
H1       H      0.42289    0.28007    0.88408    0.15  
H2       H      0.4421     0.2957     0.95971    0.15  
H2       H      0.01951    0.09517    0.3148     0.15  
H1       H      0.06017    0.17495    0.31498    0.15  
H2       H      0.34024    0.57154    0.22329    0.15  
H1       H      0.30009    0.49397    0.22326    0.15  
H1       H      0.29939    0.19675    0.91824    0.15  
H3       H      0.44888    0.16522    0.4657     0.15  
H3       H      0.41401    0.09185    0.34407    0.15  
H3       H      0.32901    0.05146    0.45534    0.15  
H2       H      0.47808    0.21514    0.42045    0.15  
H1       H      0.54529    0.26619    0.38362    0.15  
H1       H      0.54205    0.17411    0.30366    0.15  
H2       H      0.47833    0.12292    0.3391     0.15  
H2       H      0.38103    0.02523    0.33136    0.15  
H1       H      0.03631    0.36526    0.29183    0.15  
H1       H      0.04455    0.28211    0.37533    0.15  
H2       H      0.28716    0.0169     0.41612    0.15  
H2       H      0.3148     0.09241    0.4992     0.15  
H1       H      0.42289    0.14282    0.61592    0.15  
H2       H      0.4421     0.1464     0.54029    0.15  
H2       H      0.07566    0.09517    0.1852     0.15  
H1       H      0.11478    0.17495    0.18502    0.15  
H2       H      0.2313     0.57154    0.27671    0.15  
H1       H      0.19388    0.49397    0.27674    0.15  
H1       H      0.29939    0.10264    0.58176    0.15  
H3       H      0.16522    0.44888    0.9657     0.15  
H3       H      0.09185    0.41401    0.84407    0.15  
H3       H      0.05146    0.32901    0.95534    0.15  
H2       H      0.21514    0.47808    0.92045    0.15  
H1       H      0.26619    0.54529    0.88362    0.15  
H1       H      0.17411    0.54205    0.80366    0.15  
H2       H      0.12292    0.47833    0.8391     0.15  
H2       H      0.02523    0.38103    0.83136    0.15  
H1       H      0.36526    0.03631    0.79183    0.15  
H1       H      0.28211    0.04455    0.87533    0.15  
H2       H      0.0169     0.28716    0.91612    0.15  
H2       H      0.09241    0.3148     0.9992     0.15  
H1       H      0.14282    0.42289    0.11592    0.15  
H2       H      0.1464     0.4421     0.04029    0.15  
H2       H      0.09517    0.07566    0.6852     0.15  
H1       H      0.17495    0.11478    0.68502    0.15  
H2       H      0.57154    0.2313     0.77671    0.15  
H1       H      0.49397    0.19388    0.77674    0.15  
H1       H      0.10264    0.29939    0.08176    0.15  
H3       H      0.28366    0.44888    0.5343     0.15  
H3       H      0.32216    0.41401    0.65593    0.15  
H3       H      0.27755    0.32901    0.54466    0.15  
H2       H      0.26294    0.47808    0.57955    0.15  
H1       H      0.2791     0.54529    0.61638    0.15  
H1       H      0.36794    0.54205    0.69634    0.15  
H2       H      0.35541    0.47833    0.6609     0.15  
H2       H      0.3558     0.38103    0.66864    0.15  
H1       H      0.36526    0.32895    0.70817    0.15  
H1       H      0.28211    0.23756    0.62467    0.15  
H2       H      0.27026    0.28716    0.58388    0.15  
H2       H      0.22239    0.3148     0.5008     0.15  
H1       H      0.28007    0.42289    0.38408    0.15  
H2       H      0.2957     0.4421     0.45971    0.15  
H2       H      0.09517    0.01951    0.8148     0.15  
H1       H      0.17495    0.06017    0.81498    0.15  
H2       H      0.57154    0.34024    0.72329    0.15  
H1       H      0.49397    0.30009    0.72326    0.15  
H1       H      0.19675    0.29939    0.41824    0.15  
H3       H      0.07831    0.03884    0.25       0.15  
H3       H      0.03947    0.07831    0.75       0.15  
H3       H      0.2541     0.62645    0.25       0.15  
H3       H      0.62645    0.37235    0.75       0.15  


