data_Ni-DOBDC

_audit_creation_method RASPA-1.0
_audit_creation_date 2012-1-5
_audit_author_name 'Ozgur Yazaydin'

_cell_length_a    25.7856
_cell_length_b    25.7856
_cell_length_c    6.7701
_cell_angle_alpha 90
_cell_angle_beta  90
_cell_angle_gamma 120
_cell_volume      3898.34

_symmetry_cell_setting          trigonal
_symmetry_space_group_name_Hall '-R 3'
_symmetry_space_group_name_H-M  'R -3'
_symmetry_Int_Tables_number     148

loop_
_symmetry_equiv_pos_as_xyz
 'x,y,z'
 '-y,x-y,z'
 '-x+y,-x,z'
 '-x,-y,-z'
 'y,-x+y,-z'
 'x-y,x,-z'
 'x+2/3,y+1/3,z+1/3'
 '-y+2/3,x-y+1/3,z+1/3'
 '-x+y+2/3,-x+1/3,z+1/3'
 '-x+2/3,-y+1/3,-z+1/3'
 'y+2/3,-x+y+1/3,-z+1/3'
 'x-y+2/3,x+1/3,-z+1/3'
 'x+1/3,y+2/3,z+2/3'
 '-y+1/3,x-y+2/3,z+2/3'
 '-x+y+1/3,-x+2/3,z+2/3'
 '-x+1/3,-y+2/3,-z+2/3'
 'y+1/3,-x+y+2/3,-z+2/3'
 'x-y+1/3,x+2/3,-z+2/3'

loop_
_atom_site_label
_atom_site_type_symbol
_atom_site_fract_x
_atom_site_fract_y
_atom_site_fract_z
_atom_site_charge
C1       C     0.26007      0.91473      0.08534      0.789
C2       C     0.21257      0.87503      0.96033     -0.239
C3       C     0.12327      0.77553      0.91033      0.358
C4       C     0.16817      0.81673      0.03534     -0.201
H1       H     0.17067      0.80433      0.19333      0.172
Ni1      Ni    0.01817      0.71353      0.18813      1.100
O1       O     0.26287      0.89913      0.26534     -0.677
O2       O     0.30027      0.96423      0.02033     -0.623
O3       O     0.08287      0.72113      0.97933     -0.679


