data_ZIF-93

_audit_creation_method RASPA-1.0
_audit_creation_date 2012-1-19
_audit_author_name 'Sofia Calero'

_cell_length_a    28.3565
_cell_length_b    28.3565
_cell_length_c    28.3565
_cell_angle_alpha 90
_cell_angle_beta  90
_cell_angle_gamma 90
_cell_volume      22801.2

_symmetry_cell_setting          cubic
_symmetry_space_group_name_Hall 'I 4 2 3'
_symmetry_space_group_name_H-M  'I 4 3 2'
_symmetry_Int_Tables_number     211

loop_
_symmetry_equiv_pos_as_xyz
 'x,y,z'
 '-x,-y,z'
 '-x,y,-z'
 'x,-y,-z'
 'z,x,y'
 'z,-x,-y'
 '-z,-x,y'
 '-z,x,-y'
 'y,z,x'
 '-y,z,-x'
 'y,-z,-x'
 '-y,-z,x'
 'y,x,-z'
 '-y,-x,-z'
 'y,-x,z'
 '-y,x,z'
 'x,z,-y'
 '-x,z,y'
 '-x,-z,-y'
 'x,-z,y'
 'z,y,-x'
 'z,-y,x'
 '-z,y,x'
 '-z,-y,-x'
 'x+1/2,y+1/2,z+1/2'
 '-x+1/2,-y+1/2,z+1/2'
 '-x+1/2,y+1/2,-z+1/2'
 'x+1/2,-y+1/2,-z+1/2'
 'z+1/2,x+1/2,y+1/2'
 'z+1/2,-x+1/2,-y+1/2'
 '-z+1/2,-x+1/2,y+1/2'
 '-z+1/2,x+1/2,-y+1/2'
 'y+1/2,z+1/2,x+1/2'
 '-y+1/2,z+1/2,-x+1/2'
 'y+1/2,-z+1/2,-x+1/2'
 '-y+1/2,-z+1/2,x+1/2'
 'y+1/2,x+1/2,-z+1/2'
 '-y+1/2,-x+1/2,-z+1/2'
 'y+1/2,-x+1/2,z+1/2'
 '-y+1/2,x+1/2,z+1/2'
 'x+1/2,z+1/2,-y+1/2'
 '-x+1/2,z+1/2,y+1/2'
 '-x+1/2,-z+1/2,-y+1/2'
 'x+1/2,-z+1/2,y+1/2'
 'z+1/2,y+1/2,-x+1/2'
 'z+1/2,-y+1/2,x+1/2'
 '-z+1/2,y+1/2,x+1/2'
 '-z+1/2,-y+1/2,-x+1/2'

loop_
_atom_site_label
_atom_site_type_symbol
_atom_site_fract_x
_atom_site_fract_y
_atom_site_fract_z
_atom_site_charge
O1       O     0.3928       0.5423       0.9206       0
O2       O     0.0856       0.6999       0.7816       0
C3       C     0.2458       0.499        0.8834       0
C4       C     0.314        0.5229       0.9049       0
C5       C     0.3515       0.5537       0.9232       0
C6       C     0.3142       0.4742       0.9031       0
C7       C     0.3523       0.4419       0.9204       0
C8       C     0.1782       0.5935       0.8227       0
C9       C     0.1805       0.6607       0.8568       0
C10      C     0.1938       0.7001       0.8893       0
C11      C     0.1468       0.6621       0.8221       0
C12      C     0.1169       0.7029       0.8107       0
N13      N     0.271        0.5384       0.8921       0
N14      N     0.2712       0.4592       0.8896       0
N15      N     0.1451       0.6197       0.8005       0
N16      N     0.2003       0.6176       0.8573       0
H17      H     0.20731      0.50183      0.87215      0
H18      H     0.3421       0.58891      0.94017      0
H19      H     0.37786      0.43403      0.89038      0
H20      H     0.33589      0.40757      0.93337      0
H21      H     0.37213      0.45953      0.9506       0
H22      H     0.18466      0.55547      0.81138      0
H23      H     0.21474      0.72775      0.86897      0
H24      H     0.21628      0.68568      0.91935      0
H25      H     0.16051      0.71689      0.90433      0
H26      H     0.12292      0.73804      0.82927      0
Zn27     Zn    0.25         0.6014       0.8986       0
Zn28     Zn    0.25         0.3959       0.8959       0


