data_ZIF-80

_audit_creation_method RASPA-1.0
_audit_creation_date 2012-1-19
_audit_author_name 'Sofia Calero'

_cell_length_a    26.307
_cell_length_b    26.307
_cell_length_c    19.361
_cell_angle_alpha 90
_cell_angle_beta  90
_cell_angle_gamma 120
_cell_volume      11603.8

_symmetry_cell_setting          hexagonal
_symmetry_space_group_name_Hall '-P 6c 2c'
_symmetry_space_group_name_H-M  'P 63/m m c'
_symmetry_Int_Tables_number     194

loop_
_symmetry_equiv_pos_as_xyz
 'x,y,z'
 '-y,x-y,z'
 '-x+y,-x,z'
 '-x,-y,z+1/2'
 'y,-x+y,z+1/2'
 'x-y,x,z+1/2'
 'y,x,-z'
 'x-y,-y,-z'
 '-x,-x+y,-z'
 '-y,-x,-z+1/2'
 '-x+y,y,-z+1/2'
 'x,x-y,-z+1/2'
 '-x,-y,-z'
 'y,-x+y,-z'
 'x-y,x,-z'
 'x,y,-z+1/2'
 '-y,x-y,-z+1/2'
 '-x+y,-x,-z+1/2'
 '-y,-x,z'
 '-x+y,y,z'
 'x,x-y,z'
 'y,x,z+1/2'
 'x-y,-y,z+1/2'
 '-x,-x+y,z+1/2'

loop_
_atom_site_label
_atom_site_type_symbol
_atom_site_fract_x
_atom_site_fract_y
_atom_site_fract_z
_atom_site_charge
Zn1      Zn    0.89586      0.33205      0.4057       0
N1A      N     0.8262       0.2592       0.4437       0
C2A      C     0.81         0.2401       0.5109       0
Cl5A     Cl    0.8527       0.2789       0.5789       0
N1B      N     0.9634       0.3392       0.4633       0
C2B      C     0.9791       0.2966       0.4768       0
Cl5B     Cl    0.9424       0.228        0.442        0
N1C      N     0.8868       0.4003       0.4323       0
C2C      C     0.8409       0.3938       0.4738       0
H2C      H     0.8147       0.3599       0.4975       0
O7C      O     0.9852       0.5402       0.3699       0
N1D      N     0.9164       0.3251       0.3101       0
C2D      C     0.9645       0.3229       0.2852       0
H2D      H     0.9929       0.3215       0.3126       0
O8D      O     0.8148       0.3263       0.3098       0
C1A      C     0.7823       0.2177       0.402        0
H1A      H     0.781        0.219        0.3536       0
C1B      C     1            0.39         0.5          0
H1B      H     1            0.4253       0.5          0
C1C      C     0.907        0.4535       0.413        0
N3C      N     0.963        0.4815       0.377        0
C1D      C     0.8898       0.3238       0.25         0
N3D      N     0.8337       0.3258       0.25         0


