data_ZIF-97

_audit_creation_method RASPA-1.0
_audit_creation_date 2012-1-19
_audit_author_name 'Sofia Calero'

_cell_length_a    28.4319
_cell_length_b    28.4319
_cell_length_c    28.4319
_cell_angle_alpha 90
_cell_angle_beta  90
_cell_angle_gamma 90
_cell_volume      22983.6

_symmetry_cell_setting          cubic
_symmetry_space_group_name_Hall 'I 4 2 3'
_symmetry_space_group_name_H-M  'I 4 3 2'
_symmetry_Int_Tables_number     211

loop_
_symmetry_equiv_pos_as_xyz
 'x,y,z'
 '-x,-y,z'
 '-x,y,-z'
 'x,-y,-z'
 'z,x,y'
 'z,-x,-y'
 '-z,-x,y'
 '-z,x,-y'
 'y,z,x'
 '-y,z,-x'
 'y,-z,-x'
 '-y,-z,x'
 'y,x,-z'
 '-y,-x,-z'
 'y,-x,z'
 '-y,x,z'
 'x,z,-y'
 '-x,z,y'
 '-x,-z,-y'
 'x,-z,y'
 'z,y,-x'
 'z,-y,x'
 '-z,y,x'
 '-z,-y,-x'
 'x+1/2,y+1/2,z+1/2'
 '-x+1/2,-y+1/2,z+1/2'
 '-x+1/2,y+1/2,-z+1/2'
 'x+1/2,-y+1/2,-z+1/2'
 'z+1/2,x+1/2,y+1/2'
 'z+1/2,-x+1/2,-y+1/2'
 '-z+1/2,-x+1/2,y+1/2'
 '-z+1/2,x+1/2,-y+1/2'
 'y+1/2,z+1/2,x+1/2'
 '-y+1/2,z+1/2,-x+1/2'
 'y+1/2,-z+1/2,-x+1/2'
 '-y+1/2,-z+1/2,x+1/2'
 'y+1/2,x+1/2,-z+1/2'
 '-y+1/2,-x+1/2,-z+1/2'
 'y+1/2,-x+1/2,z+1/2'
 '-y+1/2,x+1/2,z+1/2'
 'x+1/2,z+1/2,-y+1/2'
 '-x+1/2,z+1/2,y+1/2'
 '-x+1/2,-z+1/2,-y+1/2'
 'x+1/2,-z+1/2,y+1/2'
 'z+1/2,y+1/2,-x+1/2'
 'z+1/2,-y+1/2,x+1/2'
 '-z+1/2,y+1/2,x+1/2'
 '-z+1/2,-y+1/2,-x+1/2'

loop_
_atom_site_label
_atom_site_type_symbol
_atom_site_fract_x
_atom_site_fract_y
_atom_site_fract_z
_atom_site_charge
O1       O     0.39089      0.54761      0.90925      0
O2       O     0.07187      0.69599      0.81578      0
C1       C     0.24663      0.49879      0.88114      0
C2       C     0.31216      0.52133      0.91001      0
C3       C     0.34868      0.55017      0.93453      0
C4       C     0.31215      0.47309      0.89292      0
C5       C     0.3497       0.44073      0.92471      0
C6       C     0.17847      0.59342      0.8227       0
C7       C     0.18105      0.66051      0.85648      0
C8       C     0.19445      0.69982      0.88876      0
C9       C     0.14787      0.66215      0.82128      0
C10      C     0.11948      0.70407      0.80654      0
N1       N     0.27116      0.53783      0.90716      0
N2       N     0.27082      0.4586       0.88939      0
N3       N     0.1458       0.61972      0.80032      0
N4       N     0.20036      0.61734      0.85747      0
H1       H     0.4176       0.57052      0.92616      0
H2       H     0.0599       0.71987      0.84425      0
H3       H     0.21375      0.50663      0.85958      0
H4       H     0.33653      0.58833      0.93651      0
H5       H     0.35442      0.53599      0.9716       0
H6       H     0.38324      0.43459      0.90361      0
H7       H     0.3328       0.40545      0.93351      0
H8       H     0.35863      0.46012      0.95866      0
H9       H     0.18482      0.55547      0.81142      0
H10      H     0.21533      0.72732      0.86838      0
H11      H     0.21692      0.68546      0.9187       0
H12      H     0.16131      0.71665      0.9038       0
H13      H     0.13174      0.73632      0.82696      0
H14      H     0.12459      0.71041      0.76728      0
Zn1      Zn    0.25         0.601        0.899        0
Zn2      Zn    0.25         0.39527      0.89527      0


