data_ZIF-96

_audit_creation_method RASPA-1.0
_audit_creation_date 2012-1-19
_audit_author_name 'Sofia Calero'

_cell_length_a    28.3564
_cell_length_b    28.3564
_cell_length_c    28.3564
_cell_angle_alpha 90
_cell_angle_beta  90
_cell_angle_gamma 90
_cell_volume      22801

_symmetry_cell_setting          cubic
_symmetry_space_group_name_Hall 'I 4 2 3'
_symmetry_space_group_name_H-M  'I 4 3 2'
_symmetry_Int_Tables_number     211

loop_
_symmetry_equiv_pos_as_xyz
 'x,y,z'
 '-x,-y,z'
 '-x,y,-z'
 'x,-y,-z'
 'z,x,y'
 'z,-x,-y'
 '-z,-x,y'
 '-z,x,-y'
 'y,z,x'
 '-y,z,-x'
 'y,-z,-x'
 '-y,-z,x'
 'y,x,-z'
 '-y,-x,-z'
 'y,-x,z'
 '-y,x,z'
 'x,z,-y'
 '-x,z,y'
 '-x,-z,-y'
 'x,-z,y'
 'z,y,-x'
 'z,-y,x'
 '-z,y,x'
 '-z,-y,-x'
 'x+1/2,y+1/2,z+1/2'
 '-x+1/2,-y+1/2,z+1/2'
 '-x+1/2,y+1/2,-z+1/2'
 'x+1/2,-y+1/2,-z+1/2'
 'z+1/2,x+1/2,y+1/2'
 'z+1/2,-x+1/2,-y+1/2'
 '-z+1/2,-x+1/2,y+1/2'
 '-z+1/2,x+1/2,-y+1/2'
 'y+1/2,z+1/2,x+1/2'
 '-y+1/2,z+1/2,-x+1/2'
 'y+1/2,-z+1/2,-x+1/2'
 '-y+1/2,-z+1/2,x+1/2'
 'y+1/2,x+1/2,-z+1/2'
 '-y+1/2,-x+1/2,-z+1/2'
 'y+1/2,-x+1/2,z+1/2'
 '-y+1/2,x+1/2,z+1/2'
 'x+1/2,z+1/2,-y+1/2'
 '-x+1/2,z+1/2,y+1/2'
 '-x+1/2,-z+1/2,-y+1/2'
 'x+1/2,-z+1/2,y+1/2'
 'z+1/2,y+1/2,-x+1/2'
 'z+1/2,-y+1/2,x+1/2'
 '-z+1/2,y+1/2,x+1/2'
 '-z+1/2,-y+1/2,-x+1/2'

loop_
_atom_site_label
_atom_site_type_symbol
_atom_site_fract_x
_atom_site_fract_y
_atom_site_fract_z
_atom_site_charge
C1       C     0.24644      0.50085      0.88055      0
C2       C     0.31189      0.52577      0.90821      0
C3       C     0.34463      0.5557       0.93261      0
C4       C     0.31167      0.47754      0.90946      0
C5       C     0.17847      0.5929       0.82085      0
C6       C     0.17688      0.65961      0.85537      0
C7       C     0.14235      0.65903      0.82156      0
C8       C     0.11051      0.69665      0.80968      0
N1       N     0.27085      0.54076      0.89002      0
N2       N     0.34456      0.44911      0.93471      0
N3       N     0.27083      0.46136      0.89168      0
N4       N     0.14306      0.617        0.79982      0
N5       N     0.19967      0.6181       0.85537      0
N6       N     0.18803      0.69793      0.88605      0
N7       N     0.37101      0.5795       0.95259      0
N8       N     0.08485      0.72688      0.80003      0
H1       H     0.20948      0.50313      0.86489      0
H2       H     0.18732      0.55558      0.8088       0
H3       H     0.35505      0.41413      0.92062      0
H4       H     0.35968      0.46196      0.96845      0
H5       H     0.22541      0.70749      0.89264      0
H6       H     0.15932      0.71817      0.90332      0
Zn1      Zn    0.25         0.60361      0.89639      0
Zn2      Zn    0.25         0.3983       0.8983       0


