data_Zn-DOBDC

_audit_creation_method RASPA-1.0
_audit_creation_date 2012-1-5
_audit_author_name 'Ozgur Yazaydin'

_cell_length_a    25.9322
_cell_length_b    25.9322
_cell_length_c    6.8365
_cell_angle_alpha 90
_cell_angle_beta  90
_cell_angle_gamma 120
_cell_volume      3981.47

_symmetry_cell_setting          trigonal
_symmetry_space_group_name_Hall '-R 3'
_symmetry_space_group_name_H-M  'R -3'
_symmetry_Int_Tables_number     148

loop_
_symmetry_equiv_pos_as_xyz
 'x,y,z'
 '-y,x-y,z'
 '-x+y,-x,z'
 '-x,-y,-z'
 'y,-x+y,-z'
 'x-y,x,-z'
 'x+2/3,y+1/3,z+1/3'
 '-y+2/3,x-y+1/3,z+1/3'
 '-x+y+2/3,-x+1/3,z+1/3'
 '-x+2/3,-y+1/3,-z+1/3'
 'y+2/3,-x+y+1/3,-z+1/3'
 'x-y+2/3,x+1/3,-z+1/3'
 'x+1/3,y+2/3,z+2/3'
 '-y+1/3,x-y+2/3,z+2/3'
 '-x+y+1/3,-x+2/3,z+2/3'
 '-x+1/3,-y+2/3,-z+2/3'
 'y+1/3,-x+y+2/3,-z+2/3'
 'x-y+1/3,x+2/3,-z+2/3'

loop_
_atom_site_label
_atom_site_type_symbol
_atom_site_fract_x
_atom_site_fract_y
_atom_site_fract_z
_atom_site_charge
Zn1      Zn    0.28008      0.98224      0.6871       1.206
O1       O     0.34547      0.03927      0.47673     -0.670
O2       O     0.365        0.10447      0.23773     -0.659
O3       O     0.31145      0.05984      0.83404     -0.702
C1       C     0.35067      0.08727      0.41173      0.767
C2       C     0.33961      0.12589      0.54873     -0.292
C3       C     0.32298      0.11122      0.74763      0.325
C4       C     0.31783      0.15329      0.85923     -0.147
H1       H     0.30747      0.14473      0.99333      0.172


