data_FAU_Fitch

_audit_creation_method RASPA-1.0
_audit_creation_date 2011-12-24
_audit_author_name 'David Dubbeldam'

_cell_length_a    24.8536
_cell_length_b    24.8536
_cell_length_c    24.8536
_cell_angle_alpha 90
_cell_angle_beta  90
_cell_angle_gamma 90
_cell_volume      15352.1

_symmetry_cell_setting          cubic
_symmetry_space_group_name_Hall '-F 4vw 2vw 3'
_symmetry_space_group_name_H-M  'F d -3 m'
_symmetry_Int_Tables_number     227

loop_
_symmetry_equiv_pos_as_xyz
 'x,y,z'
 '-x+3/4,-y+1/4,z+1/2'
 '-x+1/4,y+1/2,-z+3/4'
 'x+1/2,-y+3/4,-z+1/4'
 'z,x,y'
 'z+1/2,-x+3/4,-y+1/4'
 '-z+3/4,-x+1/4,y+1/2'
 '-z+1/4,x+1/2,-y+3/4'
 'y,z,x'
 '-y+1/4,z+1/2,-x+3/4'
 'y+1/2,-z+3/4,-x+1/4'
 '-y+3/4,-z+1/4,x+1/2'
 'y+3/4,x+1/4,-z+1/2'
 '-y,-x,-z'
 'y+1/4,-x+1/2,z+3/4'
 '-y+1/2,x+3/4,z+1/4'
 'x+3/4,z+1/4,-y+1/2'
 '-x+1/2,z+3/4,y+1/4'
 '-x,-z,-y'
 'x+1/4,-z+1/2,y+3/4'
 'z+3/4,y+1/4,-x+1/2'
 'z+1/4,-y+1/2,x+3/4'
 '-z+1/2,y+3/4,x+1/4'
 '-z,-y,-x'
 '-x,-y,-z'
 'x+1/4,y+3/4,-z+1/2'
 'x+3/4,-y+1/2,z+1/4'
 '-x+1/2,y+1/4,z+3/4'
 '-z,-x,-y'
 '-z+1/2,x+1/4,y+3/4'
 'z+1/4,x+3/4,-y+1/2'
 'z+3/4,-x+1/2,y+1/4'
 '-y,-z,-x'
 'y+3/4,-z+1/2,x+1/4'
 '-y+1/2,z+1/4,x+3/4'
 'y+1/4,z+3/4,-x+1/2'
 '-y+1/4,-x+3/4,z+1/2'
 'y,x,z'
 '-y+3/4,x+1/2,-z+1/4'
 'y+1/2,-x+1/4,-z+3/4'
 '-x+1/4,-z+3/4,y+1/2'
 'x+1/2,-z+1/4,-y+3/4'
 'x,z,y'
 '-x+3/4,z+1/2,-y+1/4'
 '-z+1/4,-y+3/4,x+1/2'
 '-z+3/4,y+1/2,-x+1/4'
 'z+1/2,-y+1/4,-x+3/4'
 'z,y,x'
 'x,y+1/2,z+1/2'
 '-x+3/4,-y+3/4,z'
 '-x+1/4,y,-z+1/4'
 'x+1/2,-y+1/4,-z+3/4'
 'z,x+1/2,y+1/2'
 'z+1/2,-x+1/4,-y+3/4'
 '-z+3/4,-x+3/4,y'
 '-z+1/4,x,-y+1/4'
 'y,z+1/2,x+1/2'
 '-y+1/4,z,-x+1/4'
 'y+1/2,-z+1/4,-x+3/4'
 '-y+3/4,-z+3/4,x'
 'y+3/4,x+3/4,-z'
 '-y,-x+1/2,-z+1/2'
 'y+1/4,-x,z+1/4'
 '-y+1/2,x+1/4,z+3/4'
 'x+3/4,z+3/4,-y'
 '-x+1/2,z+1/4,y+3/4'
 '-x,-z+1/2,-y+1/2'
 'x+1/4,-z,y+1/4'
 'z+3/4,y+3/4,-x'
 'z+1/4,-y,x+1/4'
 '-z+1/2,y+1/4,x+3/4'
 '-z,-y+1/2,-x+1/2'
 '-x,-y+1/2,-z+1/2'
 'x+1/4,y+1/4,-z'
 'x+3/4,-y,z+3/4'
 '-x+1/2,y+3/4,z+1/4'
 '-z,-x+1/2,-y+1/2'
 '-z+1/2,x+3/4,y+1/4'
 'z+1/4,x+1/4,-y'
 'z+3/4,-x,y+3/4'
 '-y,-z+1/2,-x+1/2'
 'y+3/4,-z,x+3/4'
 '-y+1/2,z+3/4,x+1/4'
 'y+1/4,z+1/4,-x'
 '-y+1/4,-x+1/4,z'
 'y,x+1/2,z+1/2'
 '-y+3/4,x,-z+3/4'
 'y+1/2,-x+3/4,-z+1/4'
 '-x+1/4,-z+1/4,y'
 'x+1/2,-z+3/4,-y+1/4'
 'x,z+1/2,y+1/2'
 '-x+3/4,z,-y+3/4'
 '-z+1/4,-y+1/4,x'
 '-z+3/4,y,-x+3/4'
 'z+1/2,-y+3/4,-x+1/4'
 'z,y+1/2,x+1/2'
 'x+1/2,y,z+1/2'
 '-x+1/4,-y+1/4,z'
 '-x+3/4,y+1/2,-z+1/4'
 'x,-y+3/4,-z+3/4'
 'z+1/2,x,y+1/2'
 'z,-x+3/4,-y+3/4'
 '-z+1/4,-x+1/4,y'
 '-z+3/4,x+1/2,-y+1/4'
 'y+1/2,z,x+1/2'
 '-y+3/4,z+1/2,-x+1/4'
 'y,-z+3/4,-x+3/4'
 '-y+1/4,-z+1/4,x'
 'y+1/4,x+1/4,-z'
 '-y+1/2,-x,-z+1/2'
 'y+3/4,-x+1/2,z+1/4'
 '-y,x+3/4,z+3/4'
 'x+1/4,z+1/4,-y'
 '-x,z+3/4,y+3/4'
 '-x+1/2,-z,-y+1/2'
 'x+3/4,-z+1/2,y+1/4'
 'z+1/4,y+1/4,-x'
 'z+3/4,-y+1/2,x+1/4'
 '-z,y+3/4,x+3/4'
 '-z+1/2,-y,-x+1/2'
 '-x+1/2,-y,-z+1/2'
 'x+3/4,y+3/4,-z'
 'x+1/4,-y+1/2,z+3/4'
 '-x,y+1/4,z+1/4'
 '-z+1/2,-x,-y+1/2'
 '-z,x+1/4,y+1/4'
 'z+3/4,x+3/4,-y'
 'z+1/4,-x+1/2,y+3/4'
 '-y+1/2,-z,-x+1/2'
 'y+1/4,-z+1/2,x+3/4'
 '-y,z+1/4,x+1/4'
 'y+3/4,z+3/4,-x'
 '-y+3/4,-x+3/4,z'
 'y+1/2,x,z+1/2'
 '-y+1/4,x+1/2,-z+3/4'
 'y,-x+1/4,-z+1/4'
 '-x+3/4,-z+3/4,y'
 'x,-z+1/4,-y+1/4'
 'x+1/2,z,y+1/2'
 '-x+1/4,z+1/2,-y+3/4'
 '-z+3/4,-y+3/4,x'
 '-z+1/4,y+1/2,-x+3/4'
 'z,-y+1/4,-x+1/4'
 'z+1/2,y,x+1/2'
 'x+1/2,y+1/2,z'
 '-x+1/4,-y+3/4,z+1/2'
 '-x+3/4,y,-z+3/4'
 'x,-y+1/4,-z+1/4'
 'z+1/2,x+1/2,y'
 'z,-x+1/4,-y+1/4'
 '-z+1/4,-x+3/4,y+1/2'
 '-z+3/4,x,-y+3/4'
 'y+1/2,z+1/2,x'
 '-y+3/4,z,-x+3/4'
 'y,-z+1/4,-x+1/4'
 '-y+1/4,-z+3/4,x+1/2'
 'y+1/4,x+3/4,-z+1/2'
 '-y+1/2,-x+1/2,-z'
 'y+3/4,-x,z+3/4'
 '-y,x+1/4,z+1/4'
 'x+1/4,z+3/4,-y+1/2'
 '-x,z+1/4,y+1/4'
 '-x+1/2,-z+1/2,-y'
 'x+3/4,-z,y+3/4'
 'z+1/4,y+3/4,-x+1/2'
 'z+3/4,-y,x+3/4'
 '-z,y+1/4,x+1/4'
 '-z+1/2,-y+1/2,-x'
 '-x+1/2,-y+1/2,-z'
 'x+3/4,y+1/4,-z+1/2'
 'x+1/4,-y,z+1/4'
 '-x,y+3/4,z+3/4'
 '-z+1/2,-x+1/2,-y'
 '-z,x+3/4,y+3/4'
 'z+3/4,x+1/4,-y+1/2'
 'z+1/4,-x,y+1/4'
 '-y+1/2,-z+1/2,-x'
 'y+1/4,-z,x+1/4'
 '-y,z+3/4,x+3/4'
 'y+3/4,z+1/4,-x+1/2'
 '-y+3/4,-x+1/4,z+1/2'
 'y+1/2,x+1/2,z'
 '-y+1/4,x,-z+1/4'
 'y,-x+3/4,-z+3/4'
 '-x+3/4,-z+1/4,y+1/2'
 'x,-z+3/4,-y+3/4'
 'x+1/2,z+1/2,y'
 '-x+1/4,z,-y+1/4'
 '-z+3/4,-y+1/4,x+1/2'
 '-z+1/4,y,-x+1/4'
 'z,-y+3/4,-x+3/4'
 'z+1/2,y+1/2,x'

loop_
_atom_site_label
_atom_site_type_symbol
_atom_site_fract_x
_atom_site_fract_y
_atom_site_fract_z
Si       Si    -0.0543       0.0354       0.1247
O        O      0           -0.1061       0.1061
O        O     -0.0021      -0.0021       0.1418
O        O      0.1764       0.1764      -0.0335
O        O      0.1786       0.1786       0.3182
Na       Na     0.2345       0.2345       0.2345
Na       Na     0            0            0     


