data_alpha-quartz

_audit_creation_method RASPA-1.0
_audit_creation_date 2011-3-28
_audit_author_name 'David Dubbeldam'

_cell_length_a    4.913
_cell_length_b    4.913
_cell_length_c    5.4052
_cell_angle_alpha 90
_cell_angle_beta  90
_cell_angle_gamma 120
_cell_volume      112.989

_symmetry_cell_setting          trigonal
_symmetry_space_group_name_Hall 'P 31 2"'
_symmetry_space_group_name_H-M  'P 31 2 1'
_symmetry_Int_Tables_number     152

loop_
_symmetry_equiv_pos_as_xyz
 'x,y,z'
 '-y,x-y,z+1/3'
 '-x+y,-x,z+2/3'
 'y,x,-z'
 'x-y,-y,-z+2/3'
 '-x,-x+y,-z+1/3'

loop_
_atom_site_label
_atom_site_type_symbol
_atom_site_fract_x
_atom_site_fract_y
_atom_site_fract_z
O1       O2-    0.4136     0.2676     0.2141  
Si1      Si4+   0.4701     0          0.33333 


